pglib_opf_case4917_goc/pglib_opf_case4917_goc_10regions.m
% -------------------------------------------------------------------------
% Partitioned MATPOWER Case File
% Copyright (c) 2025 Milad Hasanzadeh
% Generated on: 2026-06-09
% This file contains partitioned data for 10 regions


% -------------------- mpc_regionR1 --------------------

mpc_regionR1.version = '2';
mpc_regionR1.baseMVA = 100.0000;
mpc_regionR1.bus = [
%	bus_i       type        Pd          Qd          Gs          Bs          area        Vm          Va          baseKV      zone        Vmax        Vmin        
	 1	 1	 2.141	-2.058	 0	 0	 1	 0.9975	 0	 115	 3	 1.05	 0.945;
	 2	 1	 3.14	 2.692	 0	 0	 1	 0.9975	 0	 115	 3	 1.05	 0.945;
	 3	 1	 45.595	 37.117	 0	 0	 1	 0.9975	 0	 4	 3	 1.05	 0.945;
	 4	 1	 37.727	 2.102	 0	 0	 1	 0.9975	 0	 22	 3	 1.05	 0.945;
	 5	 1	 0	 0	 0	 33.9989875512	 1	 0.9975	 0	 115	 3	 1.05	 0.945;
	 6	 1	 9.724	-2.822	 0	 0	 1	 0.9975	 0	 13	 3	 1.05	 0.945;
	 7	 1	 0	 0	 0	 0	 1	 0.9975	 0	 230	 3	 1.05	 0.945;
	 8	 1	 23.498	 1.954	 0	 0	 1	 0.9975	 0	 35	 3	 1.05	 0.945;
	 9	 1	 0	 0	 0	 0	 1	 0.9975	 0	 230	 3	 1.05	 0.945;
	 10	 1	 1.418	-0.052	 0	 0	 1	 0.9975	 0	 115	 3	 1.05	 0.945;
	 11	 1	 0	 0	 0	 0	 1	 0.9975	 0	 20	 3	 1.05	 0.945;
	 12	 1	 8.885	-3.317	 0	 0	 1	 0.9975	 0	 35	 3	 1.05	 0.945;
	 13	 1	 29.181	-1.893	 0	 0	 1	 0.9975	 0	 35	 3	 1.05	 0.945;
	 14	 1	 11.517	 1.476	 0	 0	 1	 0.9975	 0	 35	 3	 1.05	 0.945;
	 15	 1	 0	 0	 0	 0	 1	 0.9975	 0	 115	 3	 1.05	 0.945;
	 16	 1	 24.14	 4.446	 0	 0	 1	 0.9975	 0	 35	 3	 1.05	 0.945;
	 17	 1	 8.618	 4.776	 0	 0	 1	 0.9975	 0	 13	 3	 1.05	 0.945;
	 18	 1	 0	 0	 0	 0	 1	 0.9975	 0	 115	 3	 1.05	 0.945;
	 19	 1	 9.394	-0.842	 0	 0	 1	 0.9975	 0	 13	 3	 1.05	 0.945;
	 20	 1	 2.302	 4.829	 0	 0	 1	 0.9975	 0	 13	 3	 1.05	 0.945;
	 21	 1	 0	 0	 0	 0	 1	 0.9975	 0	 115	 3	 1.05	 0.945;
	 22	 1	 3.354	 1.685	 0	 0	 1	 0.9975	 0	 4	 3	 1.05	 0.945;
	 23	 1	 40.724	 33.826	 0	 0	 1	 0.9975	 0	 22	 3	 1.05	 0.945;
	 24	 1	 15.059	-2.128	 0	 0	 1	 0.9975	 0	 13	 3	 1.05	 0.945;
	 25	 1	 0	 0	 0	 0	 1	 0.9975	 0	 230	 3	 1.05	 0.945;
	 26	 1	 15.264	 26.54	 0	 0	 1	 0.9975	 0	 115	 3	 1.05	 0.945;
	 27	 1	 9.456	 0.13	 0	 0	 1	 0.9975	 0	 13	 3	 1.05	 0.945;
	 28	 1	 0	 0	 0	 0	 1	 0.9975	 0	 14	 3	 1.05	 0.945;
	 29	 1	 587.525	 75.909	 0	 0	 1	 0.9975	 0	 500	 3	 1.05	 0.945;
	 30	 1	 49.485	 6.435	 0	 0	 1	 0.9975	 0	 22	 3	 1.05	 0.945;
	 31	 1	 0	 0	 0	 0	 1	 0.9975	 0	 230	 3	 1.05	 0.945;
	 32	 1	 12.097	 0.703	 0	 0	 1	 0.9975	 0	 22	 3	 1.05	 0.945;
	 33	 1	 0	 0	 0	 0	 1	 0.9975	 0	 115	 3	 1.05	 0.945;
	 34	 1	 0	 0	 0	 0	 1	 0.9975	 0	 230	 3	 1.05	 0.945;
	 35	 1	 0	 0	 0	 0	 1	 0.9975	 0	 14	 3	 1.05	 0.945;
	 36	 1	 7.895	-3.769	 0	 0	 1	 0.9975	 0	 13	 3	 1.05	 0.945;
	 37	 1	 16.557	-0.287	 0	 0	 1	 0.9975	 0	 35	 3	 1.05	 0.945;
	 38	 1	 11.811	 8.181	 0	 0	 1	 0.9975	 0	 4	 3	 1.05	 0.945;
	 39	 1	 6.37	 0.591	 0	 0	 1	 0.9975	 0	 35	 3	 1.05	 0.945;
	 40	 1	 0	 0	 0	 0	 1	 0.9975	 0	 14	 3	 1.05	 0.945;
	 41	 1	 0	 0	 0	 0	 1	 0.9975	 0	 230	 3	 1.05	 0.945;
	 42	 1	 0	 0	 0	 0	 1	 0.9975	 0	 230	 3	 1.05	 0.945;
	 43	 1	 0	 0	 0	 0	 1	 0.9975	 0	 230	 3	 1.05	 0.945;
	 44	 1	 16.977	-3.335	 0	 0	 1	 0.9975	 0	 35	 3	 1.05	 0.945;
	 45	 1	 20.501	 0.365	 0	 0	 1	 0.9975	 0	 35	 3	 1.05	 0.945;
	 46	 1	 3.979	-2.084	 0	 0	 1	 0.9975	 0	 35	 3	 1.05	 0.945;
	 47	 1	 13.06	 1.459	 0	 0	 1	 0.9975	 0	 35	 3	 1.05	 0.945;
	 48	 1	 3.738	 2.18	 0	 0	 1	 0.9975	 0	 36.5	 3	 1.05	 0.945;
	 49	 1	 10.768	 1.659	 0	 0	 1	 0.9975	 0	 34.5	 3	 1.05	 0.945;
	 50	 1	 14.131	 2.961	 0	 0	 1	 0.9975	 0	 35	 3	 1.05	 0.945;
	 51	 1	 8.386	 1.042	 0	 0	 1	 0.9975	 0	 13	 3	 1.05	 0.945;
	 52	 1	 0	 0	 0	 0	 1	 0.9975	 0	 500	 3	 1.05	 0.945;
	 53	 1	 0	 0	 0	 0	 1	 0.9975	 0	 230	 3	 1.05	 0.945;
	 54	 1	 15.585	-6.314	 0	 0	 1	 0.9975	 0	 230	 3	 1.05	 0.945;
	 55	 1	 27.905	 7.833	 0	 0	 1	 0.9975	 0	 35	 3	 1.05	 0.945;
	 56	 1	 0	 0	 0	 0	 1	 0.9975	 0	 230	 3	 1.05	 0.945;
	 57	 1	 0	 0	 0	 0	 1	 0.9975	 0	 230	 3	 1.05	 0.945;
	 58	 1	 12.775	-0.365	 0	 0	 1	 0.9975	 0	 35	 3	 1.05	 0.945;
	 59	 1	 19.492	-1.746	 0	 0	 1	 0.9975	 0	 35	 3	 1.05	 0.945;
	 60	 1	 0	 0	 0	 0	 1	 0.9975	 0	 230	 3	 1.05	 0.945;
	 61	 1	 0	 0	 0	 0	 1	 0.9975	 0	 115	 3	 1.05	 0.945;
	 62	 1	 13.765	 1.346	 0	 0	 1	 0.9975	 0	 35	 3	 1.05	 0.945;
	 63	 1	 0	 0	 0	 0	 1	 0.9975	 0	 115	 3	 1.05	 0.945;
	 64	 2	 50.573	 0.009	 0	 0	 1	 0.9975	 0	 35	 3	 1.05	 0.945;
	 65	 1	 5.362	-2.518	 0	 0	 1	 0.9975	 0	 13	 3	 1.05	 0.945;
	 66	 1	 7.601	-1.98	 0	 0	 1	 0.9975	 0	 13	 3	 1.05	 0.945;
	 67	 1	 4.559	 0.929	 0	 0	 1	 0.9975	 0	 13	 3	 1.05	 0.945;
	 68	 1	 0	 0	 0	 0	 1	 0.9975	 0	 14	 3	 1.05	 0.945;
	 69	 1	 11.223	-1.32	 0	 0	 1	 0.9975	 0	 35	 3	 1.05	 0.945;
	 70	 1	 23.311	 1.277	 0	 0	 1	 0.9975	 0	 35	 3	 1.05	 0.945;
	 71	 1	 0	 0	 0	 0	 1	 0.9975	 0	 115	 3	 1.05	 0.945;
	 72	 1	 0	 0	 0	 0	 1	 0.9975	 0	 115	 3	 1.05	 0.945;
	 73	 1	 7.868	 0.087	 0	 0.00996251223203	 1	 0.9975	 0	 13.2	 3	 1.05	 0.945;
	 74	 1	 21.5	 5.601	 0	 0	 1	 0.9975	 0	 22	 3	 1.05	 0.945;
	 75	 1	 12.927	 1.832	 0	 0	 1	 0.9975	 0	 35	 3	 1.05	 0.945;
	 76	 1	 1.41	 0.747	 0	 0	 1	 0.9975	 0	 4	 3	 1.05	 0.945;
	 77	 1	 12.213	-5.914	 0	 0	 1	 0.9975	 0	 13	 3	 1.05	 0.945;
	 78	 1	 37.93	 20.638	 0	 0	 1	 0.9975	 0	 115	 3	 1.05	 0.945;
	 79	 1	 0	 0	 0	 0	 1	 0.9975	 0	 230	 3	 1.05	 0.945;
	 80	 1	 0	 0	 0	 0	 1	 0.9975	 0	 115	 3	 1.05	 0.945;
	 81	 1	 0	 0	 0	 0	 1	 0.9975	 0	 115	 3	 1.05	 0.945;
	 82	 1	 0	 0	 0	 0	 1	 0.9975	 0	 230	 3	 1.05	 0.945;
	 83	 1	 2.355	 4.325	 0	 0	 1	 0.9975	 0	 35	 3	 1.05	 0.945;
	 84	 1	 18.324	-3.309	 0	 0	 1	 0.9975	 0	 35	 3	 1.05	 0.945;
	 85	 1	 8.27	-1.059	 0	 0	 1	 0.9975	 0	 35	 3	 1.05	 0.945;
	 86	 1	 9.653	 4.829	 0	 0	 1	 0.9975	 0	 13	 3	 1.05	 0.945;
	 87	 1	 15.094	-0.226	 0	 0	 1	 0.9975	 0	 35	 3	 1.05	 0.945;
	 88	 1	 16.468	 3.222	 0	 0.000258921870665	 1	 0.9975	 0	 35	 3	 1.05	 0.945;
	 89	 1	 8.778	 4.655	 0	 0	 1	 0.9975	 0	 22	 3	 1.05	 0.945;
	 90	 1	 0	 0	 0	 0	 1	 0.9975	 0	 230	 3	 1.05	 0.945;
	 91	 1	 0	 0	 0	 0	 1	 0.9975	 0	 115	 3	 1.05	 0.945;
	 92	 1	 0	 0	 0	 0	 1	 0.9975	 0	 115	 3	 1.05	 0.945;
	 93	 1	 10.643	-0.373	 0	 0	 1	 0.9975	 0	 35	 3	 1.05	 0.945;
	 94	 1	 15.005	-4.542	 0	 0	 1	 0.9975	 0	 35	 3	 1.05	 0.945;
	 95	 1	 5.237	 1.242	 0	 0	 1	 0.9975	 0	 13	 3	 1.05	 0.945;
	 96	 2	 26.442	 14.72	 0	 0	 1	 0.9975	 0	 22	 3	 1.05	 0.945;
	 97	 1	 30.073	 17.69	 0	 0	 1	 0.9975	 0	 35	 3	 1.05	 0.945;
	 98	 1	 1.677	 0.269	 0	 0	 1	 0.9975	 0	 13	 3	 1.05	 0.945;
	 99	 1	 2.596	-0.434	 0	 0	 1	 0.9975	 0	 35	 3	 1.05	 0.945;
	 100	 1	 45.667	 5.028	 0	 0	 1	 0.9975	 0	 35	 3	 1.05	 0.945;
	 101	 1	 35.104	 1.016	 0	 0	 1	 0.9975	 0	 115	 3	 1.05	 0.945;
	 102	 1	 5.397	-3.109	 0	 0	 1	 0.9975	 0	 13	 3	 1.05	 0.945;
	 103	 1	 11.49	-6.618	 0	 0	 1	 0.9975	 0	 13	 3	 1.05	 0.945;
	 104	 1	 11.678	 8.945	 0	 0	 1	 0.9975	 0	 4	 3	 1.05	 0.945;
	 105	 1	 6.263	 2.128	 0	 0	 1	 0.9975	 0	 13	 3	 1.05	 0.945;
	 106	 1	 6.352	-9.534	 0	-10.593	 1	 0.9975	 0	 115	 3	 1.05	 0.945;
	 107	 1	 8.1	 0.912	 0	 0	 1	 0.9975	 0	 13	 3	 1.05	 0.945;
	 108	 1	 5.362	 0.339	 0	 0	 1	 0.9975	 0	 13	 3	 1.05	 0.945;
	 109	 1	 14.184	 3.17	 0	 0	 1	 0.9975	 0	 35	 3	 1.05	 0.945;
	 110	 1	 0	 0	 0	 0	 1	 0.9975	 0	 115	 3	 1.05	 0.945;
	 111	 1	 0	 0	 0	 0	 1	 0.9975	 0	 230	 3	 1.05	 0.945;
	 112	 1	 0	 0	 0	 0	 1	 0.9975	 0	 18	 3	 1.05	 0.945;
	 113	 1	 0	 0	 0	 0	 1	 0.9975	 0	 230	 3	 1.05	 0.945;
	 114	 1	 0	 0	 0	 0	 1	 0.9975	 0	 500	 3	 1.05	 0.945;
	 115	 1	 0	 0	 0	 111.031344834	 1	 0.9975	 0	 230	 3	 1.05	 0.945;
	 116	 1	 7.842	-2.77	 0	 0	 1	 0.9975	 0	 35	 3	 1.05	 0.945;
	 117	 1	 0	 0	 0	 0	 1	 0.9975	 0	 230	 3	 1.05	 0.945;
	 118	 1	 86.147	 21.159	 0	 0	 1	 0.9975	 0	 115	 3	 1.05	 0.945;
	 119	 1	 9.251	 5.115	 0	 0	 1	 0.9975	 0	 4	 3	 1.05	 0.945;
	 120	 1	 15.005	-4.533	 0	 0	 1	 0.9975	 0	 35	 3	 1.05	 0.945;
	 121	 1	 14.077	-3.335	 0	 0	 1	 0.9975	 0	 35	 3	 1.05	 0.945;
	 122	 1	 0	 0	 0	 0	 1	 0.9975	 0	 230	 3	 1.05	 0.945;
	 123	 1	 22.052	 14.52	 0	 0	 1	 0.9975	 0	 115	 3	 1.05	 0.945;
	 124	 1	 0	 0	 0	 0	 1	 0.9975	 0	 230	 3	 1.05	 0.945;
	 125	 1	 0	 0	 0	 163.9781935	 1	 0.9975	 0	 230	 3	 1.05	 0.945;
	 126	 1	 16.477	 1.416	 0	 0	 1	 0.9975	 0	 22	 3	 1.05	 0.945;
	 127	 1	 4.104	 1.841	 0	 0	 1	 0.9975	 0	 4	 3	 1.05	 0.945;
	 128	 1	 13.426	 1.112	 0	 0	 1	 0.9975	 0	 35	 3	 1.05	 0.945;
	 129	 1	 27.7	-6.287	 0	 0	 1	 0.9975	 0	 35	 3	 1.05	 0.945;
	 130	 1	 0	 0	 0	 0	 1	 0.9975	 0	 115	 3	 1.05	 0.945;
	 131	 1	 24.176	 0.156	 0	 0	 1	 0.9975	 0	 35	 3	 1.05	 0.945;
	 132	 1	 0	 0	 0	 0	 1	 0.9975	 0	 18	 3	 1.05	 0.945;
	 133	 1	 0	 0	 0	 0	 1	 0.9975	 0	 115	 3	 1.05	 0.945;
	 134	 1	 27.985	-2.275	 0	 0	 1	 0.9975	 0	 35	 3	 1.05	 0.945;
	 135	 1	 8.109	-1.207	 0	 0	 1	 0.9975	 0	 13	 3	 1.05	 0.945;
	 136	 1	 0	 0	 0	 0	 1	 0.9975	 0	 500	 3	 1.05	 0.945;
	 137	 1	 0	 0	 0	 0	 1	 0.9975	 0	 115	 3	 1.05	 0.945;
	 138	 1	 1.757	 1.815	 0	 0	 1	 0.9975	 0	 13	 3	 1.05	 0.945;
	 139	 1	 0	 0	 0	 0	 1	 0.9975	 0	 230	 3	 1.05	 0.945;
	 140	 1	 7.574	-2.822	 0	 0	 1	 0.9975	 0	 13	 3	 1.05	 0.945;
	 141	 1	 27.985	 3.769	 0	 0	 1	 0.9975	 0	 35	 3	 1.05	 0.945;
	 142	 1	 0	 0	 0	 0	 1	 0.9975	 0	 115	 3	 1.05	 0.945;
	 143	 1	 0	 0	 0	 0	 1	 0.9975	 0	 230	 3	 1.05	 0.945;
	 144	 1	 14.024	-6.67	 0	 0	 1	 0.9975	 0	 22	 3	 1.05	 0.945;
	 145	 1	 0	 0	 0	 0	 1	 0.9975	 0	 115	 3	 1.05	 0.945;
	 146	 1	 0	 0	 0	 0	 1	 0.9975	 0	 115	 3	 1.05	 0.945;
	 147	 1	 7.44	-1.902	 0	 0	 1	 0.9975	 0	 13	 3	 1.05	 0.945;
	 148	 1	 0	 0	 0	 0	 1	 0.9975	 0	 500	 3	 1.05	 0.945;
	 149	 1	 0	 0	 0	 0	 1	 0.9975	 0	 230	 3	 1.05	 0.945;
	 150	 1	 0	 0	 0	 0	 1	 0.9975	 0	 115	 3	 1.05	 0.945;
	 151	 1	 0	 0	 0	 0	 1	 0.9975	 0	 230	 3	 1.05	 0.945;
	 152	 1	 0	 0	 0	 0	 1	 0.9975	 0	 500	 3	 1.05	 0.945;
	 153	 1	 29.154	-6.287	 0	 0	 1	 0.9975	 0	 35	 3	 1.05	 0.945;
	 154	 1	 0	 0	 0	 0	 1	 0.9975	 0	 230	 3	 1.05	 0.945;
	 155	 1	 10.58	-0.174	 0	 0	 1	 0.9975	 0	 115	 3	 1.05	 0.945;
	 156	 2	 0	 0	 0	 0	 1	 0.9975	 0	 18	 3	 1.05	 0.945;
	 157	 1	 11.062	 0.921	 0	 0	 1	 0.9975	 0	 13	 3	 1.05	 0.945;
	 158	 2	 0	 0	 0	 0	 1	 0.9975	 0	 230	 3	 1.05	 0.945;
	 159	 1	 26.308	 0.738	 0	 0	 1	 0.9975	 0	 35	 3	 1.05	 0.945;
	 160	 1	 18.493	 9.865	 0	 0	 1	 0.9975	 0	 13	 3	 1.05	 0.945;
	 161	 1	 38.236	 0.747	 0	 0	 1	 0.9975	 0	 35	 3	 1.05	 0.945;
	 162	 1	 5.263	 1.65	 0	 0	 1	 0.9975	 0	 13	 3	 1.05	 0.945;
	 163	 1	 6.735	 1.902	 0	 0	 1	 0.9975	 0	 13	 3	 1.05	 0.945;
	 164	 1	 10.116	 4.577	 0	 0	 1	 0.9975	 0	 115	 3	 1.05	 0.945;
	 165	 1	 34.961	 0.634	 0	 0	 1	 0.9975	 0	 35	 3	 1.05	 0.945;
	 166	 1	 21.598	-1.563	 0	 0	 1	 0.9975	 0	 35	 3	 1.05	 0.945;
	 167	 1	 29.992	-0.295	 0	 0	 1	 0.9975	 0	 35	 3	 1.05	 0.945;
	 168	 1	 18.832	 1.294	 0	 0	 1	 0.9975	 0	 35	 3	 1.05	 0.945;
	 169	 1	 14.693	 0.217	 0	 0	 1	 0.9975	 0	 35	 3	 1.05	 0.945;
	 170	 1	 0	 0	 0	 0	 1	 0.9975	 0	 115	 3	 1.05	 0.945;
	 171	 1	 0	 0	 0	 0	 1	 0.9975	 0	 115	 3	 1.05	 0.945;
	 172	 1	 94.563	 29.735	 0	 0	 1	 0.9975	 0	 230	 3	 1.05	 0.945;
	 173	 1	 0	 0	 0	 0	 1	 0.9975	 0	 230	 3	 1.05	 0.945;
	 174	 1	 0	 0	 0	 0	 1	 0.9975	 0	 230	 3	 1.05	 0.945;
	 175	 1	 6.539	 0.434	 0	 0	 1	 0.9975	 0	 35	 3	 1.05	 0.945;
	 176	 1	 0	 0	 0	 0	 1	 0.9975	 0	 230	 3	 1.05	 0.945;
	 177	 1	 5.263	 1.65	 0	 0	 1	 0.9975	 0	 13	 3	 1.05	 0.945;
	 178	 1	 0	 0	 0	 0	 1	 0.9975	 0	 14	 3	 1.05	 0.945;
	 179	 1	 0	 0	 0	 0	 1	 0.9975	 0	 20	 3	 1.05	 0.945;
	 180	 1	 4.898	 0.295	 0	 0	 1	 0.9975	 0	 115	 3	 1.05	 0.945;
	 181	 1	 0	 0	 0	 0	 1	 0.9975	 0	 115	 3	 1.05	 0.945;
	 182	 1	 0	 0	 0	 0	 1	 0.9975	 0	 500	 3	 1.05	 0.945;
	 183	 1	 0	 0	 0	 0	 1	 0.9975	 0	 230	 3	 1.05	 0.945;
	 184	 1	 6.495	-1.424	 0	 0	 1	 0.9975	 0	 13	 3	 1.05	 0.945;
	 185	 1	 0	 0	 0	 0	 1	 0.9975	 0	 230	 3	 1.05	 0.945;
	 186	 1	 6.709	 3.387	 0	 0	 1	 0.9975	 0	 13	 3	 1.05	 0.945;
	 187	 1	 9.528	 0.486	 0	 0	 1	 0.9975	 0	 34.5	 3	 1.05	 0.945;
	 188	 2	 0	 0	 0	 0	 1	 0.9975	 0	 14	 3	 1.05	 0.945;
	 189	 1	 9.644	-1.85	 0	 0	 1	 0.9975	 0	 13	 3	 1.05	 0.945;
	 190	 1	 0	 0	 0	 0	 1	 0.9975	 0	 115	 3	 1.05	 0.945;
	 191	 1	 14.416	 4.324	 0	 0	 1	 0.9975	 0	 115	 3	 1.05	 0.945;
	 192	 1	 0	 0	 0	 0	 1	 0.9975	 0	 115	 3	 1.05	 0.945;
	 193	 1	 0	 0	 0	 0	 1	 0.9975	 0	 230	 3	 1.05	 0.945;
	 194	 1	 6.842	 4.594	 0	 0	 1	 0.9975	 0	 35	 3	 1.05	 0.945;
	 195	 1	 8.644	 5.749	 0	 0	 1	 0.9975	 0	 115	 3	 1.05	 0.945;
	 196	 1	 9.251	 5.106	 0	 0	 1	 0.9975	 0	 4	 3	 1.05	 0.945;
	 197	 1	 16.714	 12.209	 0	 14.101	 1	 0.9975	 0	 115	 3	 1.05	 0.945;
	 198	 1	 34.819	-1.85	 0	 0	 1	 0.9975	 0	 35	 3	 1.05	 0.945;
	 199	 1	 0	 0	 0	 0	 1	 0.9975	 0	 115	 3	 1.05	 0.945;
	 200	 1	 16.433	 3.17	 0	 0	 1	 0.9975	 0	 35	 3	 1.05	 0.945;
...
];

mpc_regionR1.gen = [
%	bus         Pg          Qg          Qmax        Qmin        Vg          mBase       status      Pmax        Pmin        Pc1         Pc2         Qc1min      Qc1max      Qc2min      Qc2max      ramp_agc    ramp_10     ramp_30     ramp_q      apf         
	 11	 0	 0	 61.104	-61.104	 0.9975	 200.54	 0	 196.412	 85.5;
	 23	 0	 0	 291.77	-195.238	 0.9975	 1200	 0	 1464.327	 897.75;
	 28	 0	 0	 31.567	-31.567	 0.9975	 104	 0	 101.471	 71.25;
	 35	 0	 0	 22.5	-22.5	 0.9975	 67.5	 0	 327.059	 16.353;
	 35	 0	 0	 22.194	-22.194	 0.9975	 67.5	 0	 71.341	 14.25;
	 40	 0	 0	 56.492	-56.492	 0.9975	 234	 0	 181.588	 138.7;
	 64	 169.421	 0	 104.31	-104.31	 0.9975	 100	 1	 335.294	 3.548;
	 68	 0	 0	 31.567	-31.567	 0.9975	 104	 0	 101.471	 71.25;
	 96	 1180.703	 121.2335	 437.88	-195.413	 0.9975	 1200	 1	 1462.706	 898.7;
	 112	 0	 0	 62.97	-67.458	 0.9975	 198.9	 0	 216.838	 9.5;
	 132	 0	 0	 59.951	-59.951	 0.9975	 226	 0	 192.706	 147.25;
	 156	 97.397	 0	 57.645	-57.645	 0.9975	 198.9	 1	 185.294	 9.5;
	 158	 176.6475	-0.775	 71.77	-73.32	 0.9975	 88.24	 1	 336.471	 16.824;
	 158	 0	 0	 71.77	-73.32	 0.9975	 131.6	 0	 327.059	 16.353;
	 158	 0	 0	 42.287	-42.287	 0.9975	 131.6	 0	 135.926	 60.48;
	 159	 0	 0	 33.333	-33.333	 0.9975	 100	 0	 340	 17;
	 159	 0	 0	 33.333	-33.333	 0.9975	 100	 0	 348.235	 17.412;
	 159	 0	 0	 33.333	-33.333	 0.9975	 100	 0	 302.353	 15.118;
	 165	 0	 0	 92.232	-92.232	 0.9975	 100	 0	 296.471	 14.824;
	 178	 0	 0	 66.059	-44.625	 0.9975	 181.5	 0	 212.339	 10;
	 179	 0	 0	 141.74	-90.67	 0.9975	 384	 0	 518.486	 285;
	 188	 173.5	 17.2125	 78.975	-44.55	 0.9975	 82.78	 1	 296.667	 50.333;
	 203	 0	 0	 14.603	-14.603	 0.9975	 54.4	 0	 46.941	 2.347;
	 205	 840	 0	 550	-550	 0.9975	 100	 1	 1600	 80;
	 208	 0	 0	 78.397	-42.075	 0.9975	 82.78	 0	 252	 50.108;
	 209	 0	 0	 33.333	-33.333	 0.9975	 100	 0	 304.706	 15.235;
	 221	 21	 0	 13.21	-13.21	 0.9975	 100	 1	 40	 2;
	 242	 0	 0	 63.025	-63.025	 0.9975	 218	 0	 202.588	 85.5;
	 245	 0	 0	 37.471	-37.471	 0.9975	 132.35	 0	 120.447	 33.25;
	 246	 0	 0	 33.333	-33.333	 0.9975	 100	 0	 329.412	 16.471;
	 248	 0	 0	 33.333	-33.333	 0.9975	 100	 0	 303.529	 15.176;
	 248	 0	 0	 33.333	-33.333	 0.9975	 100	 0	 317.647	 15.882;
	 261	 0	 0	 96.624	-96.624	 0.9975	 100	 0	 310.588	 4.15;
	 264	 0	 0	 67.22	-44.587	 0.9975	 181.5	 0	 216.073	 96.9;
	 268	 0	 0	 62.641	-62.641	 0.9975	 200.54	 0	 201.353	 85.5;
	 282	 0	 0	 31.567	-31.567	 0.9975	 104	 0	 101.471	 71.25;
	 290	 21	 0	 33.333	-33.333	 0.9975	 100	 1	 40	 2;
	 292	 0	 0	 22.5	-22.5	 0.9975	 67.5	 0	 352.941	 17.647;
	 292	 0	 0	 17.103	-17.103	 0.9975	 67.5	 0	 54.976	 26.13;
	 296	 0	 0	 98.454	-98.454	 0.9975	 100	 0	 316.471	 4.917;
	 305	 0	 0	 56.492	-56.492	 0.9975	 234	 0	 181.588	 138.7;
	 323	 0	 0	 59.951	-59.951	 0.9975	 226	 0	 192.706	 147.25;
	 328	 0	 0	 58.1	-98.088	 0.9975	 120	 0	 315.294	 15.765;
	 328	 180.3525	-24.386	 58.1	-106.872	 0.9975	 120	 1	 343.529	 17.176;
	 328	 153.2885	-17.798	 58.1	-93.696	 0.9975	 147	 1	 301.177	 5.4;
	 328	 0	 0	 58.1	-98.088	 0.9975	 120	 0	 315.294	 15.765;
	 328	 163.4955	-20.177	 58.1	-98.454	 0.9975	 120	 1	 316.471	 10.52;
	 328	 0	 0	 54.232	-54.232	 0.9975	 147	 0	 174.324	 79.2;
	 336	 176.382	 29.796	 108.702	-49.11	 0.9975	 119.2	 1	 349.412	 3.352;
	 336	 0	 0	 106.506	-49.11	 0.9975	 119.2	 0	 342.353	 9.14;
	 336	 0	 0	 100.284	-49.11	 0.9975	 119.2	 0	 322.353	 16.118;
	 336	 0	 0	 32.263	-32.263	 0.9975	 115	 0	 103.706	 55.867;
	 348	 21	 0	 33.333	-33.333	 0.9975	 100	 1	 40	 2;
	 353	 0	 0	 31.567	-31.567	 0.9975	 104	 0	 101.471	 71.25;
	 363	 0	 0	 98.088	-0.375	 0.9975	 100	 0	 315.294	 3.667;
	 366	 0	 0	 22.5	-22.5	 0.9975	 67.5	 0	 298.823	 14.941;
	 366	 0	 0	 16.335	-16.335	 0.9975	 67.5	 0	 52.506	 15.2;
	 372	 184.0585	-38.55	 21.9	-99	 0.9975	 100	 1	 350.588	 17.529;
	 380	 122.6795	-5.098	 63.18	-73.376	 0.9975	 198.9	 1	 235.859	 9.5;
	 389	 46.306	-2.9245	 13.75	-19.599	 0.9975	 83.65	 1	 73.612	 19;
	 392	 0	 0	 59.567	-59.567	 0.9975	 226	 0	 191.471	 146.3;
	 397	 0	 0	 154.54	-182.9	 0.9975	 444.44	 0	 1080.882	 291.6;
	 404	 0	 0	 96.624	-96.624	 0.9975	 980	 0	 310.588	 15.529;
	 407	 0	 0	 216.58	-140.8	 0.9975	 771	 0	 980.838	 342;
	 432	 56.7765	 0	 22.646	-22.646	 0.9975	 58.71	 1	 85.053	 28.5;
	 437	 21	 0	 13.083	-13.083	 0.9975	 100	 1	 40	 2;
	 438	 819.579	 0	 550	-550	 0.9975	 100	 1	 1600	 39.158;
];

mpc_regionR1.branch = [
%	fbus        tbus        r           x           b           rateA       rateB       rateC       ratio       angle       status      angmin      angmax      
	 1	 61	 0.00183	 0.00937	 0.00122	 187	 190	 190	 0	 0	 1	-30	 30;
	 1	 191	 0.00022	 0.00113	 0.00012	 141	 153	 153	 0	 0	 1	-30	 30;
	 2	 142	 0.01166	 0.04179	 0.00542	 128	 128	 128	 0	 0	 1	-30	 30;
	 2	 413	 0.00022	 0.001	 0	 128	 128	 128	 0	 0	 1	-30	 30;
	 5	 195	 0.00131	 0.00851	 0.00107	 241	 241	 241	 0	 0	 1	-30	 30;
	 7	 399	 0.00056	 0.00423	 0.01581	 1080	 1080	 1080	 0	 0	 1	-30	 30;
	 9	 302	 0.00036	 0.00336	 0.013	 940	 1020	 1020	 0	 0	 1	-30	 30;
	 9	 328	 0.00065	 0.00605	 0.02335	 1007	 1107.7	 1208.4	 0	 0	 1	-30	 30;
	 10	 181	 0.00673	 0.03407	 0.0048	 190	 190	 190	 0	 0	 1	-30	 30;
	 10	 213	 0.00202	 0.01043	 0.00146	 193	 193	 193	 0	 0	 1	-30	 30;
	 15	 295	 0.00136	 0.01038	 0.00163	 259	 259	 259	 0	 0	 1	-30	 30;
	 15	 319	 0.00143	 0.01098	 0.00172	 259	 259	 259	 0	 0	 1	-30	 30;
	 18	 142	 0.00442	 0.02193	 0.00308	 207	 207	 207	 0	 0	 1	-30	 30;
	 18	 297	 0.00356	 0.02198	 0.00308	 207	 207	 207	 0	 0	 1	-30	 30;
	 21	 254	 0.00137	 0.01051	 0.00163	 239	 249	 249	 0	 0	 1	-30	 30;
	 21	 295	 0.00227	 0.01734	 0.00272	 259	 259	 259	 0	 0	 1	-30	 30;
	 25	 275	 0.00078	 0.0064	 0.01355	 510	 510	 510	 0	 0	 1	-30	 30;
	 25	 278	 0.0004	 0.0033	 0.00684	 517	 517	 517	 0	 0	 1	-30	 30;
	 26	 78	 0.00944	 0.02664	 0.00322	 179	 179	 179	 0	 0	 1	-30	 30;
	 29	 148	 0.0002	 0.0054	 0.41	 3450	 3603	 3603	 0	 0	 1	-30	 30;
	 29	 182	 0.00012	 0.00276	 0.25	 2702	 2702	 2702	 0	 0	 1	-30	 30;
	 31	 422	 0.00057	 0.00452	 0.017	 782	 782	 782	 0	 0	 1	-30	 30;
	 31	 426	 0.00084	 0.00676	 0.02499	 782	 782	 782	 0	 0	 1	-30	 30;
	 33	 61	 0.0065	 0.03322	 0.004	 141	 153	 153	 0	 0	 1	-30	 30;
	 33	 170	 0.00642	 0.03305	 0.00433	 141	 153	 153	 0	 0	 1	-30	 30;
	 34	 125	 0.00085	 0.00649	 0.85367	 632	 632	 632	 0	 0	 1	-30	 30;
	 41	 211	 0.00038	 0.00457	 0.01257	 782	 782	 782	 0	 0	 1	-30	 30;
	 41	 419	 0.00103	 0.01035	 0.0323	 782	 782	 782	 0	 0	 1	-30	 30;
	 42	 115	 0.00224	 0.01661	 0.06507	 1080	 1080	 1080	 0	 0	 1	-30	 30;
	 42	 185	 0.00127	 0.00944	 0.03667	 940	 1020	 1020	 0	 0	 1	-30	 30;
	 43	 309	 0.00167	 0.01268	 0.04823	 829	 829	 829	 0	 0	 1	-30	 30;
	 43	 381	 0.00156	 0.01233	 0.04704	 782	 782	 782	 0	 0	 1	-30	 30;
	 52	 114	 0.00017	 0.00362	 0.2746	 3164	 3164	 3164	 0	 0	 1	-30	 30;
	 52	 148	 0.00025	 0.00514	 0.38934	 2702	 2702	 2702	 0	 0	 1	-30	 30;
	 52	 265	 0.0001	 0.001	 0	 260	 312	 390	 0	 0	 1	-30	 30;
	 53	 372	 0.00159	 0.01262	 0.04733	 782	 782	 782	 0	 0	 1	-30	 30;
	 54	 360	 0.00035	 0.00265	 0.00989	 1080	 1080	 1080	 0	 0	 1	-30	 30;
	 56	 278	 0.00043	 0.00371	 0.00787	 517	 517	 517	 0	 0	 1	-30	 30;
	 56	 356	 0.00265	 0.01932	 0.05717	 510	 510	 510	 0	 0	 1	-30	 30;
	 57	 328	 0.00169	 0.01564	 0.06034	 829	 829	 829	 0	 0	 1	-30	 30;
	 57	 399	 0.0015	 0.0138	 0.05309	 940	 1020	 1020	 0	 0	 1	-30	 30;
	 60	 125	 0.00151	 0.01216	 0.03387	 510	 510	 510	 0	 0	 1	-30	 30;
	 60	 367	 0.00013	 0.00108	 0.00232	 510	 510	 510	 0	 0	 1	-30	 30;
	 61	 63	 0.00897	 0.03961	 0.00527	 224	 224	 224	 0	 0	 1	-30	 30;
	 61	 145	 0.00642	 0.02507	 0.00318	 136	 136	 136	 0	 0	 1	-30	 30;
	 61	 155	 0.00344	 0.02737	 0.0048	 187	 197	 197	 0	 0	 1	-30	 30;
	 61	 352	 0.00748	 0.0385	 0.00517	 190	 190	 190	 0	 0	 1	-30	 30;
	 63	 91	 0.02092	 0.08078	 0.01058	 224	 224	 224	 0	 0	 1	-30	 30;
	 71	 92	 0.0001	 0.001	 0	 260	 312	 390	 0	 0	 1	-30	 30;
	 71	 181	 0.00563	 0.02838	 0.00401	 190	 190	 190	 0	 0	 1	-30	 30;
	 72	 344	 0.0175	 0.04807	 0.00614	 128	 128	 128	 0	 0	 1	-30	 30;
	 78	 164	 0.00664	 0.03989	 0.00584	 241	 241	 241	 0	 0	 1	-30	 30;
	 78	 437	 0.0001	 0.01	 0	 140.66	 168.8	 211	 0	 0	 1	-30	 30;
	 79	 139	 0.00076	 0.00626	 0.01324	 510	 510	 510	 0	 0	 1	-30	 30;
	 79	 174	 0.00103	 0.00842	 0.01779	 510	 510	 510	 0	 0	 1	-30	 30;
	 80	 281	 0.00168	 0.01106	 0.00156	 190	 190	 190	 0	 0	 1	-30	 30;
	 80	 320	 0.00322	 0.01658	 0.00326	 165	 165	 165	 0	 0	 1	-30	 30;
	 81	 101	 0.00615	 0.0376	 0.00487	 195	 195	 195	 0	 0	 1	-30	 30;
	 81	 416	 0.00194	 0.01187	 0.00153	 195	 195	 195	 0	 0	 1	-30	 30;
	 82	 211	 0.0013	 0.0097	 0.03223	 782	 782	 782	 0	 0	 1	-30	 30;
	 82	 302	 0.00178	 0.0136	 0.05299	 782	 782	 782	 0	 0	 1	-30	 30;
	 82	 426	 0.00047	 0.00381	 0.01398	 782	 782	 782	 0	 0	 1	-30	 30;
	 90	 287	 0.0001	 0.001	 0	 260	 312	 390	 0	 0	 1	-30	 30;
	 90	 383	 0.00026	 0.00211	 0.00446	 613	 633	 633	 0	 0	 1	-30	 30;
	 91	 428	 0.01124	 0.04339	 0.00568	 224	 224	 224	 0	 0	 1	-30	 30;
	 92	 365	 0.00032	 0.00163	 0.00024	 162	 162	 162	 0	 0	 1	-30	 30;
	 106	 204	 0.00501	 0.03357	 0.00414	 216	 216	 216	 0	 0	 1	-30	 30;
	 106	 438	 0.0001	 0.01	 0	 83.7	 98.6	 125.55	 0	 0	 1	-30	 30;
	 110	 170	 0.00538	 0.02703	 0.00371	 249	 249	 249	 0	 0	 1	-30	 30;
	 110	 325	 0.00451	 0.022	 0.00308	 193	 193	 193	 0	 0	 1	-30	 30;
	 113	 176	 0.00106	 0.00776	 0.03151	 829	 829	 829	 0	 0	 1	-30	 30;
	 113	 423	 0.00021	 0.00158	 0.00586	 940	 1020	 1020	 0	 0	 1	-30	 30;
	 114	 182	 0.00042	 0.01119	 0.862	 2702	 2702	 2702	 0	 0	 1	-30	 30;
	 114	 230	 0.0003	 0.0063	 0.46158	 2702	 2702	 2702	 0	 0	 1	-30	 30;
	 114	 316	 0.0001	 0.0035	 0.25354	 3603	 3603	 3603	 0	 0	 1	-30	 30;
	 115	 117	 0.00188	 0.01424	 0.0528	 883	 883	 883	 0	 0	 1	-30	 30;
	 115	 176	 0.00246	 0.02	 0.044	 649	 649	 649	 0	 0	 1	-30	 30;
	 115	 317	 0.00204	 0.01537	 0.05719	 1080	 1080	 1080	 0	 0	 1	-30	 30;
	 115	 317	 0.00247	 0.01985	 0.04374	 729	 729	 729	 0	 0	 1	-30	 30;
	 115	 387	 0.00087	 0.00694	 0.00845	 782	 782	 782	 0	 0	 1	-30	 30;
	 115	 417	 0.00339	 0.02694	 0.09957	 782	 782	 782	 0	 0	 1	-30	 30;
	 117	 193	 0.00014	 0.00106	 0.00403	 940	 1020	 1020	 0	 0	 1	-30	 30;
	 122	 283	 0.00065	 0.00532	 0.01169	 510	 510	 510	 0	 0	 1	-30	 30;
	 122	 317	 0.00186	 0.01506	 0.03307	 729	 729	 729	 0	 0	 1	-30	 30;
	 123	 150	 0.0001	 0.001	 0	 260	 312	 390	 0	 0	 1	-30	 30;
	 123	 215	 0.00335	 0.0168	 0.0023	 207	 207	 207	 0	 0	 1	-30	 30;
	 123	 221	 0.00726	 0.03404	 0.00459	 287.05	 344.46	 430.58	 0	 0	 1	-30	 30;
	 123	 271	 0.00325	 0.01638	 0.00223	 207	 207	 207	 0	 0	 1	-30	 30;
	 123	 297	 0.00982	 0.05353	 0.00737	 207	 207	 207	 0	 0	 1	-30	 30;
	 123	 314	 0.0069	 0.03186	 0.00426	 159	 159	 159	 0	 0	 1	-30	 30;
	 124	 367	 0.00069	 0.00562	 0.01193	 510	 510	 510	 0	 0	 1	-30	 30;
	 124	 410	 4e-05	 0.001	 0.00049	 633	 633	 633	 0	 0	 1	-30	 30;
	 125	 151	 0.002	 0.01626	 0.04302	 510	 510	 510	 0	 0	 1	-30	 30;
	 125	 223	 0.00085	 0.00689	 0.02545	 782	 782	 782	 0	 0	 1	-30	 30;
	 125	 291	 0.00097	 0.0077	 0.02892	 782	 782	 782	 0	 0	 1	-30	 30;
	 130	 260	 0.00189	 0.0097	 0.00137	 195	 195	 195	 0	 0	 1	-30	 30;
	 130	 320	 0.00183	 0.00937	 0.00134	 195	 195	 195	 0	 0	 1	-30	 30;
	 133	 142	 0.00326	 0.02699	 0.00357	 249	 249	 249	 0	 0	 1	-30	 30;
	 133	 171	 0.0019	 0.01505	 0.00352	 391	 391	 391	 0	 0	 1	-30	 30;
	 133	 279	 0.00295	 0.01554	 0.00227	 195	 195	 195	 0	 0	 1	-30	 30;
	 136	 427	 0.0003	 0.003	 0.03998	 2666	 2771	 2771	 0	 0	 1	-30	 30;
	 137	 155	 0.00091	 0.00737	 0.00101	 364	 364	 364	 0	 0	 1	-30	 30;
	 137	 254	 0.00796	 0.03113	 0.00395	 159	 159	 159	 0	 0	 1	-30	 30;
	 139	 327	 0.00043	 0.00419	 0.009	 979	 979	 979	 0	 0	 1	-30	 30;
	 139	 334	 0.00043	 0.0042	 0.00903	 989	 989	 989	 0	 0	 1	-30	 30;
	 143	 311	 0.00345	 0.0293	 0.06	 400	 437	 437	 0	 0	 1	-30	 30;
	 143	 412	 0.00086	 0.00736	 0.01495	 515	 515	 515	 0	 0	 1	-30	 30;
	 145	 349	 0.01814	 0.07318	 0.00868	 136	 136	 136	 0	 0	 1	-30	 30;
	 146	 170	 0.00653	 0.03383	 0.00466	 166	 166	 166	 0	 0	 1	-30	 30;
	 146	 341	 0.0001	 0.001	 0	 260	 312	 390	 0	 0	 1	-30	 30;
	 148	 205	 7e-05	 0.00188	 0.14319	 3450	 3722	 3722	 0	 0	 1	-30	 30;
	 149	 302	 0.0001	 0.001	 0	 334.22	 401.06	 501.33	 0	 0	 1	-30	 30;
	 149	 334	 0.00043	 0.00422	 0.00906	 989	 989	 989	 0	 0	 1	-30	 30;
	 151	 398	 0.00036	 0.00292	 0.00641	 510	 510	 510	 0	 0	 1	-30	 30;
	 152	 316	 0.00036	 0.00979	 0.73199	 2702	 2702	 2702	 0	 0	 1	-30	 30;
	 154	 302	 0.0001	 0.001	 0	 830	 830	 830	 0	 0	 1	-30	 30;
	 154	 347	 0.00052	 0.00794	 0.01859	 856	 856	 856	 0	 0	 1	-30	 30;
	 158	 211	 7e-05	 0.001	 0.00171	 473	 520.3	 567.6	 0	 0	 1	-30	 30;
	 164	 195	 0.00468	 0.02808	 0.0041	 241	 241	 241	 0	 0	 1	-30	 30;
	 171	 413	 0.00167	 0.01346	 0.00279	 391	 391	 391	 0	 0	 1	-30	 30;
	 172	 220	 6e-05	 0.001	 0.00146	 614	 614	 614	 0	 0	 1	-30	 30;
	 173	 278	 0.0024	 0.01627	 0.03221	 432	 432	 432	 0	 0	 1	-30	 30;
	 173	 347	 0.00226	 0.0151	 0.02966	 432	 432	 432	 0	 0	 1	-30	 30;
	 174	 355	 0.00122	 0.01006	 0.02122	 729	 729	 729	 0	 0	 1	-30	 30;
	 174	 381	 0.00131	 0.01014	 0.03993	 663	 663	 663	 0	 0	 1	-30	 30;
	 174	 396	 0.0004	 0.0051	 0.013	 478	 556	 556	 0	 0	 1	-30	 30;
	 176	 355	 0.00127	 0.01047	 0.02206	 613	 672	 672	 0	 0	 1	-30	 30;
	 176	 360	 0.00192	 0.01598	 0.03331	 510	 510	 510	 0	 0	 1	-30	 30;
	 180	 310	 0.01249	 0.03432	 0.00438	 128	 128	 128	 0	 0	 1	-30	 30;
	 180	 344	 0.00536	 0.01473	 0.00188	 128	 128	 128	 0	 0	 1	-30	 30;
	 183	 228	 0.00059	 0.00447	 0.01685	 1080	 1080	 1080	 0	 0	 1	-30	 30;
	 183	 302	 0.00167	 0.0142	 0.02431	 517	 517	 517	 0	 0	 1	-30	 30;
	 185	 302	 0.001	 0.0075	 0.02875	 940	 1020	 1020	 0	 0	 1	-30	 30;
	 190	 279	 0.0045	 0.0213	 0.002	 195	 195	 195	 0	 0	 1	-30	 30;
	 191	 299	 0.00164	 0.0083	 0.00111	 190	 190	 190	 0	 0	 1	-30	 30;
	 192	 349	 0.00618	 0.02492	 0.00295	 136	 136	 136	 0	 0	 1	-30	 30;
	 192	 420	 0.00633	 0.02558	 0.00303	 136	 136	 136	 0	 0	 1	-30	 30;
	 193	 424	 0.0001	 0.001	 0.00293	 829	 829	 829	 0	 0	 1	-30	 30;
	 197	 428	 0.00766	 0.06528	 0.00834	 259	 259	 259	 0	 0	 1	-30	 30;
	 199	 413	 0.00016	 0.00106	 0.00012	 154	 154	 154	 0	 0	 1	-30	 30;
	 204	 416	 0.00291	 0.01954	 0.00241	 216	 216	 216	 0	 0	 1	-30	 30;
	 205	 217	 0.00017	 0.00443	 0.3403	 3603	 3603	 3603	 0	 0	 1	-30	 30;
	 211	 278	 0.00159	 0.01611	 0.04205	 517	 517	 517	 0	 0	 1	-30	 30;
	 212	 354	 0.00514	 0.01415	 0.00181	 128	 128	 128	 0	 0	 1	-30	 30;
	 213	 299	 0.00129	 0.0067	 0.00089	 190	 190	 190	 0	 0	 1	-30	 30;
	 214	 413	 0.00017	 0.00113	 0.00012	 154	 154	 154	 0	 0	 1	-30	 30;
	 215	 413	 0.0115	 0.04642	 0.00613	 202	 202	 202	 0	 0	 1	-30	 30;
	 217	 316	 0.00013	 0.00331	 0.25446	 3603	 3603	 3603	 0	 0	 1	-30	 30;
	 218	 410	 0.00416	 0.03878	 0.11135	 633	 633	 633	 0	 0	 1	-30	 30;
	 219	 317	 0.00547	 0.04623	 0.09346	 436	 436	 436	 0	 0	 1	-30	 30;
	 219	 318	 0.00169	 0.01434	 0.02885	 436	 436	 436	 0	 0	 1	-30	 30;
	 220	 293	 0.00065	 0.00432	 0.0087	 400	 437	 437	 0	 0	 1	-30	 30;
	 220	 372	 0.00154	 0.0105	 0.02277	 614	 614	 614	 0	 0	 1	-30	 30;
	 221	 429	 0.0001	 0.01	 0	 294.64	 353.56	 441.95	 0	 0	 1	-30	 30;
	 223	 357	 0.00183	 0.01449	 0.05492	 782	 782	 782	 0	 0	 1	-30	 30;
	 224	 387	 0.00012	 0.001	 0.00342	 829	 829	 829	 0	 0	 1	-30	 30;
	 224	 422	 0.00029	 0.00226	 0.01703	 829	 829	 829	 0	 0	 1	-30	 30;
	 228	 393	 0.00135	 0.01085	 0.03664	 940	 1020	 1020	 0	 0	 1	-30	 30;
	 230	 345	 0.00025	 0.00657	 0.49991	 2598	 2702	 2702	 0	 0	 1	-30	 30;
	 230	 427	 0.00058	 0.01216	 0.91701	 2702	 2702	 2702	 0	 0	 1	-30	 30;
	 237	 258	 0.00111	 0.00885	 0.03313	 663	 663	 663	 0	 0	 1	-30	 30;
	 237	 419	 0.00063	 0.00497	 0.01874	 782	 782	 782	 0	 0	 1	-30	 30;
	 238	 428	 0.00917	 0.03547	 0.00463	 159	 159	 159	 0	 0	 1	-30	 30;
	 240	 427	 0.0001	 0.001	 0.00488	 2771	 2771	 2771	 0	 0	 1	-30	 30;
	 246	 251	 0.003	 0.0172	 0.06396	 829	 829	 829	 0	 0	 1	-30	 30;
	 252	 291	 0.00054	 0.00429	 0.01581	 782	 782	 782	 0	 0	 1	-30	 30;
	 252	 340	 0.00086	 0.00685	 0.02536	 564	 612	 612	 0	 0	 1	-30	 30;
	 254	 362	 0.00598	 0.04306	 0.0084	 247	 247	 247	 0	 0	 1	-30	 30;
	 258	 408	 0.0001	 0.001	 0	 260	 312	 390	 0	 0	 1	-30	 30;
	 260	 352	 0.00033	 0.00172	 0.00024	 195	 195	 195	 0	 0	 1	-30	 30;
	 270	 274	 0.00499	 0.01848	 0.00228	 100	 100	 100	 0	 0	 1	-30	 30;
	 270	 326	 0.00224	 0.00861	 0.00113	 131	 131	 131	 0	 0	 1	-30	 30;
	 270	 428	 0.0129	 0.0979	 0.02267	 100	 100	 100	 0	 0	 1	-30	 30;
	 271	 413	 0.01162	 0.04698	 0.0062	 202	 202	 202	 0	 0	 1	-30	 30;
	 274	 314	 0.00909	 0.02813	 0.00288	 100	 100	 100	 0	 0	 1	-30	 30;
	 274	 388	 0.01017	 0.01812	 0.00177	 159	 159	 159	 0	 0	 1	-30	 30;
	 275	 293	 0.00095	 0.00778	 0.01649	 510	 510	 510	 0	 0	 1	-30	 30;
	 276	 325	 0.00227	 0.01665	 0.00277	 249	 249	 249	 0	 0	 1	-30	 30;
	 276	 325	 0.00224	 0.01664	 0.00277	 259	 259	 259	 0	 0	 1	-30	 30;
	 278	 360	 0.00191	 0.0162	 0.03269	 510	 510	 510	 0	 0	 1	-30	 30;
	 281	 320	 0.00161	 0.00808	 0.00111	 195	 195	 195	 0	 0	 1	-30	 30;
	 283	 398	 0.00069	 0.00564	 0.01239	 510	 510	 510	 0	 0	 1	-30	 30;
	 287	 340	 9e-05	 0.001	 0.00146	 517	 517	 517	 0	 0	 1	-30	 30;
	 290	 391	 0.01353	 0.06834	 0.01012	 195	 195	 195	 0	 0	 1	-30	 30;
	 290	 435	 0.0001	 0.01	 0	 134.88	 161.86	 202.32	 0	 0	 1	-30	 30;
	 292	 360	 0.00018	 0.00149	 0.00293	 231	 231	 231	 0	 0	 1	-30	 30;
	 309	 408	 0.00082	 0.00616	 0.02301	 829	 829	 829	 0	 0	 1	-30	 30;
	 310	 411	 0.021	 0.05769	 0.00737	 128	 128	 128	 0	 0	 1	-30	 30;
	 317	 412	 0.00102	 0.00866	 0.01781	 517	 517	 517	 0	 0	 1	-30	 30;
	 319	 359	 0.00536	 0.02151	 0.0028	 270	 270	 270	 0	 0	 1	-30	 30;
	 320	 365	 0.00261	 0.0134	 0.00177	 162	 162	 162	 0	 0	 1	-30	 30;
	 325	 341	 0.00286	 0.01417	 0.002	 190	 190	 190	 0	 0	 1	-30	 30;
	 325	 420	 0.00472	 0.02616	 0.00785	 255	 255	 255	 0	 0	 1	-30	 30;
	 327	 347	 0.00123	 0.0124	 0.02592	 979	 979	 979	 0	 0	 1	-30	 30;
	 328	 400	 0.0001	 0.001	 0	 260	 312	 390	 0	 0	 1	-30	 30;
	 336	 360	 0.0001	 0.001	 0	 633	 633	 633	 0	 0	 1	-30	 30;
	 348	 369	 0.00245	 0.02068	 0.04177	 811	 811	 811	 0	 0	 1	-30	 30;
	 351	 383	 0.00169	 0.01804	 0.03788	 613	 633	 633	 0	 0	 1	-30	 30;
	 354	 411	 0.00571	 0.01597	 0.00205	 128	 128	 128	 0	 0	 1	-30	 30;
	 356	 372	 0.0018	 0.0136	 0.04878	 782	 782	 782	 0	 0	 1	-30	 30;
...
];

mpc_regionR1.gencost = [
%	2           startup     shutdown    n           c(n-1)...c0 
	 2	 0	 0	 3	 0.05041	 34.58	 4631;
	 2	 0	 0	 3	 0	 0.4691	 58420;
	 2	 0	 0	 3	 0.7052	 80.32	-886.8;
	 2	 0	 0	 3	 0	 1.665	 1096;
	 2	 0	 0	 3	 0	 3.44	 1379;
	 2	 0	 0	 3	 0.3535	 29.23	 3302;
	 2	 0	 0	 3	 0	 1.239	 267.2;
	 2	 0	 0	 3	 0	 198	-6350;
	 2	 0	 0	 3	 0	 0.6822	 59720;
	 2	 0	 0	 3	 0.02053	 20.93	 778.3;
	 2	 0	 0	 3	 0.3205	 25.42	 4352;
	 2	 0	 0	 3	 0.0217	 30.51	 685.2;
	 2	 0	 0	 3	 0	 0.1782	 1166;
	 2	 0	 0	 3	 0	 0.851	 1263;
	 2	 0	 0	 3	 0.1165	 58.08	 2254;
	 2	 0	 0	 3	 0	 2.335	 1261;
	 2	 0	 0	 3	 0	 2.487	 1418;
	 2	 0	 0	 3	 0	 1.384	 941.5;
	 2	 0	 0	 3	 0	 21.24	 1339;
	 2	 0	 0	 3	 0.01536	 23.33	 708.6;
	 2	 0	 0	 3	 0	 0.7872	 25970;
	 2	 0	 0	 3	 0.01456	 16.48	 4034;
	 2	 0	 0	 3	 0	 5.018	 51.54;
	 2	 0	 0	 3	 0	 2.48	 2468;
	 2	 0	 0	 3	 0.01646	 25.27	 3811;
	 2	 0	 0	 3	 0	 1.528	 1077;
	 2	 0	 0	 3	 0.1728	 28.54	 127.7;
	 2	 0	 0	 3	 0.06373	 26.94	 5588;
	 2	 0	 0	 3	 0	 68.61	 1337;
	 2	 0	 0	 3	 0	 0.4503	 1124;
	 2	 0	 0	 3	 0	 1.572	 1053;
	 2	 0	 0	 3	 0	 1.17	 1122;
	 2	 0	 0	 3	 0	 0.9825	 365.3;
	 2	 0	 0	 3	 0.04698	 36.54	 5908;
	 2	 0	 0	 3	 0.0497	 38.46	 5100;
	 2	 0	 0	 3	 0.9139	 17.87	 1046;
	 2	 0	 0	 3	 0.3774	 9.421	 122.4;
	 2	 0	 0	 3	 0	 1.916	 1437;
	 2	 0	 0	 3	 0	 20.36	 114.3;
	 2	 0	 0	 3	 0	 1.144	 360;
	 2	 0	 0	 3	 0.3525	 29.53	 3278;
	 2	 0	 0	 3	 0.3188	 26	 4315;
	 2	 0	 0	 3	 0	 2.518	 1145;
	 2	 0	 0	 3	 0	 2.521	 1374;
	 2	 0	 0	 3	 0	 1.341	 372.2;
	 2	 0	 0	 3	 0	 1.819	 1099;
	 2	 0	 0	 3	 0	 0.8687	 698;
	 2	 0	 0	 3	 0.06877	 39.46	 3838;
	 2	 0	 0	 3	 0	 0.4072	 509.6;
	 2	 0	 0	 3	 0	 1.552	 619.7;
	 2	 0	 0	 3	 0	 1.93	 1026;
	 2	 0	 0	 3	 0.2896	 81.48	-1617;
	 2	 0	 0	 3	 0	 28.53	 283.8;
	 2	 0	 0	 3	 0.8833	 23.16	 837.1;
	 2	 0	 0	 3	 0	 1.39	 272.8;
	 2	 0	 0	 3	 0.007819	 16.61	 1153;
	 2	 0	 0	 3	 0	 20.41	 931;
	 2	 0	 0	 3	 0	 1.06	 1271;
	 2	 0	 0	 3	 0.01311	 23.76	 762.4;
	 2	 0	 0	 3	 0.1335	 0	 1411;
	 2	 0	 0	 3	 0.3213	 26.72	 4169;
	 2	 0	 0	 3	 0	 0.9365	 21580;
	 2	 0	 0	 3	 0	 0.2079	 1029;
	 2	 0	 0	 3	 0	 0.2239	 26410;
	 2	 0	 0	 3	 0	 3.912	 1616;
	 2	 0	 0	 3	 0	 12.54	 201.1;
	 2	 0	 0	 3	 0	 0.3659	 1147;
];


% -------------------- mpc_regionR2 --------------------

mpc_regionR2.version = '2';
mpc_regionR2.baseMVA = 100.0000;
mpc_regionR2.bus = [
%	bus_i       type        Pd          Qd          Gs          Bs          area        Vm          Va          baseKV      zone        Vmax        Vmin        
	 1	 1	 0	 0	 0	 0.0115112286574	 1	 0.9975	 0	 230	 2	 1.05	 0.945;
	 2	 1	 0	 0	 0	 2.58856290847	 1	 0.9975	 0	 115	 2	 1.05	 0.945;
	 3	 1	-84.536	 19.644	 0	 0.0154304188359	 1	 0.9975	 0	 115	 2	 1.05	 0.945;
	 4	 1	 108.917	 51.229	 0	 1.9499780274	 1	 0.9975	 0	 115	 2	 1.05	 0.945;
	 5	 1	 0	 0	 0	 0	 1	 0.9975	 0	 230	 2	 1.05	 0.945;
	 6	 1	-141.612	-0.712	 0	-4.8161904231	 1	 0.9975	 0	 115	 2	 1.05	 0.945;
	 7	 1	 0	 0	 0	 0.00296345705944	 1	 0.9975	 0	 115	 2	 1.05	 0.945;
	 8	 1	 97.168	-39.905	 0	 21.8998089014	 1	 0.9975	 0	 115	 2	 1.05	 0.945;
	 9	 1	 0	 0	 0	-0.857770246841	 1	 0.9975	 0	 115	 2	 1.05	 0.945;
	 10	 1	 40.769	 5.193	 0	 0	 1	 0.9975	 0	 115	 2	 1.05	 0.945;
	 11	 1	 20.421	 2.421	 0	 2.673	 1	 0.9975	 0	 230	 2	 1.05	 0.945;
	 12	 1	 0	 0	 0	 33.2699471293	 1	 0.9975	 0	 230	 2	 1.05	 0.945;
	 13	 1	-84.553	 19.644	 0	 0.0154249539518	 1	 0.9975	 0	 115	 2	 1.05	 0.945;
	 14	 1	 118.897	 0.163	 0	-17.596	 1	 0.9975	 0	 230	 2	 1.05	 0.945;
	 15	 1	 25.719	 6.8	 0	 0	 1	 0.9975	 0	 230	 2	 1.05	 0.945;
	 16	 1	 36.719	 2.683	 0	 0	 1	 0.9975	 0	 230	 2	 1.05	 0.945;
	 17	 2	-85.214	 25.688	 0	 0	 1	 0.9975	 0	 22.8	 2	 1.05	 0.945;
	 18	 1	 0	 0	 0	 47.499852397	 1	 0.9975	 0	 230	 2	 1.05	 0.945;
	 19	 1	 0	 0	 0	-0.353698269531	 1	 0.9975	 0	 138	 2	 1.05	 0.945;
	 20	 1	-95.883	 20.573	 0	 0	 1	 0.9975	 0	 21	 2	 1.05	 0.945;
	 21	 1	 96.936	-19.253	 0	 3.52997945004	 1	 0.9975	 0	 230	 2	 1.05	 0.945;
	 22	 2	 134.93	-36.266	 0	 0	 1	 0.9975	 0	 115	 2	 1.05	 0.945;
	 23	 1	-193.301	-6.227	 0	-0.00429687080184	 1	 0.9975	 0	 115	 2	 1.05	 0.945;
	 24	 1	 0	 0	 0	-3.98369073905	 1	 0.9975	 0	 115	 2	 1.05	 0.945;
	 25	 1	 78.469	 23.127	 0	 44.7657810229	 1	 0.9975	 0	 161	 2	 1.05	 0.945;
	 26	 1	 0	 0	 0	-0.868921177249	 1	 0.9975	 0	 230	 2	 1.05	 0.945;
	 27	 2	 60.538	 15.258	 0	 0	 1	 0.9975	 0	 161	 2	 1.05	 0.945;
	 28	 1	-43.829	 24.646	 0	-0.00134789283948	 1	 0.9975	 0	 115	 2	 1.05	 0.945;
	 29	 1	 93.448	 72.654	 0	 117.171948383	 1	 0.9975	 0	 115	 2	 1.05	 0.945;
	 30	 1	 27.521	 4.794	 0	 0	 1	 0.9975	 0	 230	 2	 1.05	 0.945;
	 31	 1	 0	 0	 0	-2.39870628637	 1	 0.9975	 0	 138	 2	 1.05	 0.945;
	 32	 1	 0	 0	 0	-0.0158257362728	 1	 0.9975	 0	 230	 2	 1.05	 0.945;
	 33	 1	 0	 0	 0	-0.00543947763116	 1	 0.9975	 0	 230	 2	 1.05	 0.945;
	 34	 1	 0	 0	 0	 16.9282887087	 1	 0.9975	 0	 230	 2	 1.05	 0.945;
	 35	 1	 0	 0	 0	 10.73167357	 1	 0.9975	 0	 230	 2	 1.05	 0.945;
	 36	 1	 0	 0	 0	-0.0350512421951	 1	 0.9975	 0	 161	 2	 1.05	 0.945;
	 37	 2	 32.553	 5.28	 0	-47.238	 1	 0.9975	 0	 230	 2	 1.05	 0.945;
	 38	 2	 0	 0	 0	 0	 1	 0.9975	 0	 230	 2	 1.05	 0.945;
	 39	 1	-141.603	-1.198	 0	-5.30192331945	 1	 0.9975	 0	 115	 2	 1.05	 0.945;
	 40	 1	 0	 0	 0	 0	 1	 0.9975	 0	 230	 2	 1.05	 0.945;
	 41	 1	 136.474	-31.264	 0	 12.4398188082	 1	 0.9975	 0	 115	 2	 1.05	 0.945;
	 42	 1	 0	 0	 0	 0	 1	 0.9975	 0	 230	 2	 1.05	 0.945;
	 43	 1	 30.082	 3.7	 0	 0.00280008871111	 1	 0.9975	 0	 115	 2	 1.05	 0.945;
	 44	 1	 21.41	-4.733	 0	 6.63977873646	 1	 0.9975	 0	 230	 2	 1.05	 0.945;
	 45	 1	 20.804	 2.371	 0	 0	 1	 0.9975	 0	 230	 2	 1.05	 0.945;
	 46	 1	 23.025	 1.607	 0	 0	 1	 0.9975	 0	 35	 3	 1.05	 0.945;
	 47	 1	 16.334	 0.052	 0	 0	 1	 0.9975	 0	 35	 3	 1.05	 0.945;
	 48	 1	 19.76	 0.747	 0	 0	 1	 0.9975	 0	 35	 3	 1.05	 0.945;
	 49	 2	 0	 0	 0	 0	 1	 0.9975	 0	 13	 3	 1.05	 0.945;
	 50	 2	 2.792	 0.13	 0	-4.777	 1	 0.9975	 0	 115	 3	 1.05	 0.945;
	 51	 1	 0	 0	 0	 0	 1	 0.9975	 0	 230	 3	 1.05	 0.945;
	 52	 1	 0	 0	 0	 0	 1	 0.9975	 0	 115	 3	 1.05	 0.945;
	 53	 1	 0	 0	 0	 0	 1	 0.9975	 0	 230	 3	 1.05	 0.945;
	 54	 1	 13.426	 3.187	 0	 0	 1	 0.9975	 0	 35	 3	 1.05	 0.945;
	 55	 1	 14.3	-0.434	 0	 0	 1	 0.9975	 0	 35	 3	 1.05	 0.945;
	 56	 1	 7.868	 2.171	 0	 0	 1	 0.9975	 0	 35	 3	 1.05	 0.945;
	 57	 1	 17.592	 4.846	 0	 0	 1	 0.9975	 0	 230	 3	 1.05	 0.945;
	 58	 1	 38.762	 19.145	 0	 0	 1	 0.9975	 0	 115	 3	 1.05	 0.945;
	 59	 1	 0	 0	 0	 0	 1	 0.9975	 0	 500	 3	 1.05	 0.945;
	 60	 1	 29.377	 0.226	 0	 0	 1	 0.9975	 0	 35	 3	 1.05	 0.945;
	 61	 1	-1.338	-0.608	 0	 0	 1	 0.9975	 0	 7	 3	 1.05	 0.945;
	 62	 1	 0	 0	 0	 0	 1	 0.9975	 0	 500	 3	 1.05	 0.945;
	 63	 1	 0	 0	 0	 0	 1	 0.9975	 0	 230	 3	 1.05	 0.945;
	 64	 1	 0	 0	 0	 24.3999520148	 1	 0.9975	 0	 115	 3	 1.05	 0.945;
	 65	 2	 6.066	 3.378	 0	-8.836	 1	 0.9975	 0	 115	 3	 1.05	 0.945;
	 66	 1	 9.117	-0.834	 0	 0	 1	 0.9975	 0	 35	 3	 1.05	 0.945;
	 67	 1	 0	 0	 0	 0	 1	 0.9975	 0	 20	 3	 1.05	 0.945;
	 68	 1	 0	 0	 0	 0	 1	 0.9975	 0	 230	 3	 1.05	 0.945;
	 69	 1	 0	 0	 0	 0	 1	 0.9975	 0	 230	 3	 1.05	 0.945;
	 70	 2	 0	 0	 0	-76.414	 1	 0.9975	 0	 500	 3	 1.05	 0.945;
	 71	 1	 0	 0	 0	 0	 1	 0.9975	 0	 230	 3	 1.05	 0.945;
	 72	 1	 10.339	 1.72	 0	 0	 1	 0.9975	 0	 13	 3	 1.05	 0.945;
	 73	 1	 0	 0	 0	 5.02090361698	 1	 0.9975	 0	 115	 3	 1.05	 0.945;
	 74	 1	 0	 0	 0	 0	 1	 0.9975	 0	 230	 3	 1.05	 0.945;
	 75	 1	 0	 0	 0	 0	 1	 0.9975	 0	 500	 3	 1.05	 0.945;
	 76	 2	 23.801	 54.442	 0	 0	 1	 0.9975	 0	 13	 3	 1.05	 0.945;
	 77	 1	 0	 0	 0	 0	 1	 0.9975	 0	 115	 3	 1.05	 0.945;
	 78	 1	 0	 0	 0	 0	 1	 0.9975	 0	 500	 3	 1.05	 0.945;
	 79	 1	 0	 0	 0	 0	 1	 0.9975	 0	 230	 3	 1.05	 0.945;
	 80	 1	 29.653	-0.86	 0	 0	 1	 0.9975	 0	 35	 3	 1.05	 0.945;
	 81	 1	 0	 0	 0	 0	 1	 0.9975	 0	 115	 3	 1.05	 0.945;
	 82	 1	 13.979	 2.345	 0	 0	 1	 0.9975	 0	 13	 3	 1.05	 0.945;
	 83	 1	 10.973	 1.007	 0	 0	 1	 0.9975	 0	 35	 3	 1.05	 0.945;
	 84	 1	 0	 0	 0	 0	 1	 0.9975	 0	 230	 3	 1.05	 0.945;
	 85	 1	 8.689	 5.558	 0	 0	 1	 0.9975	 0	 35	 3	 1.05	 0.945;
	 86	 2	 106.321	 10.986	 0	 0	 1	 0.9975	 0	 230	 3	 1.05	 0.945;
	 87	 1	 0	 0	 0	 0	 1	 0.9975	 0	 500	 3	 1.05	 0.945;
	 88	 1	 0	 0	 0	 0	 1	 0.9975	 0	 230	 3	 1.05	 0.945;
	 89	 1	 0	 0	 0	 0	 1	 0.9975	 0	 230	 3	 1.05	 0.945;
	 90	 2	 0	 0	 0	 0	 1	 0.9975	 0	 13	 3	 1.05	 0.945;
	 91	 1	 5.852	 3.83	 0	 0	 1	 0.9975	 0	 13	 3	 1.05	 0.945;
	 92	 1	 0	 0	 0	 0	 1	 0.9975	 0	 115	 3	 1.05	 0.945;
	 93	 1	 11.588	 2.909	 0	 0	 1	 0.9975	 0	 35	 3	 1.05	 0.945;
	 94	 1	 21.972	 10.23	 0	 0	 1	 0.9975	 0	 230	 3	 1.05	 0.945;
	 95	 1	 6.941	-0.66	 0	 0	 1	 0.9975	 0	 35	 3	 1.05	 0.945;
	 96	 1	 0	 0	 0	 0	 1	 0.9975	 0	 500	 3	 1.05	 0.945;
	 97	 1	 4.603	 1.832	 0	 0	 1	 0.9975	 0	 115	 3	 1.05	 0.945;
	 98	 1	 0	 0	 0	 0	 1	 0.9975	 0	 230	 3	 1.05	 0.945;
	 99	 2	 0	 0	 0	 0	 1	 0.9975	 0	 500	 3	 1.05	 0.945;
	 100	 1	 0	 0	 0	 0	 1	 0.9975	 0	 22	 3	 1.05	 0.945;
	 101	 2	 0	 0	 0	 0	 1	 0.9975	 0	 13	 3	 1.05	 0.945;
	 102	 1	 41.501	 9.101	 0	 0	 1	 0.9975	 0	 35	 3	 1.05	 0.945;
	 103	 1	 22.989	 1.607	 0	 0	 1	 0.9975	 0	 35	 3	 1.05	 0.945;
	 104	 1	 0	 0	 0	 0	 1	 0.9975	 0	 115	 3	 1.05	 0.945;
	 105	 1	 0	 0	 0	 0	 1	 0.9975	 0	 115	 3	 1.05	 0.945;
	 106	 1	 6.79	 2.097	 0	 0	 1	 0.9975	 0	 115	 3	 1.05	 0.945;
	 107	 1	 7.404	 1.581	 0	 0	 1	 0.9975	 0	 35	 3	 1.05	 0.945;
	 108	 1	 0	 0	 0	 0	 1	 0.9975	 0	 230	 3	 1.05	 0.945;
	 109	 1	 0	 0	 0	 0	 1	 0.9975	 0	 115	 3	 1.05	 0.945;
	 110	 1	 22.124	 3.474	 0	 0	 1	 0.9975	 0	 35	 3	 1.05	 0.945;
	 111	 1	 15.407	 3.135	 0	 0	 1	 0.9975	 0	 35	 3	 1.05	 0.945;
	 112	 1	 0	 0	 0	 0	 1	 0.9975	 0	 115	 3	 1.05	 0.945;
	 113	 1	 0	 0	 0	 0	 1	 0.9975	 0	 230	 3	 1.05	 0.945;
	 114	 1	 19.564	-3.752	 0	 0	 1	 0.9975	 0	 35	 3	 1.05	 0.945;
	 115	 1	 67.307	 21.559	 0	 0	 1	 0.9975	 0	 230	 3	 1.05	 0.945;
	 116	 1	 7.404	 1.537	 0	 0	 1	 0.9975	 0	 35	 3	 1.05	 0.945;
	 117	 1	 0	 0	 0	 0	 1	 0.9975	 0	 230	 3	 1.05	 0.945;
	 118	 1	 24.872	 0.695	 0	 0	 1	 0.9975	 0	 13.2	 3	 1.05	 0.945;
	 119	 1	 13.15	 2.38	 0	 0	 1	 0.9975	 0	 35	 3	 1.05	 0.945;
	 120	 1	 0	 0	 0	 0	 1	 0.9975	 0	 115	 3	 1.05	 0.945;
	 121	 1	 0	 0	 0	 0	 1	 0.9975	 0	 230	 3	 1.05	 0.945;
	 122	 1	 81.992	 96.078	 0	 0	 1	 0.9975	 0	 230	 3	 1.05	 0.945;
	 123	 2	 1.142	 0.886	 0	 0	 1	 0.9975	 0	 13	 3	 1.05	 0.945;
	 124	 1	 0	 0	 0	 0	 1	 0.9975	 0	 115	 3	 1.05	 0.945;
	 125	 1	 25.354	 2.944	 0	 0	 1	 0.9975	 0	 35	 3	 1.05	 0.945;
	 126	 1	 16.807	-1.12	 0	 0	 1	 0.9975	 0	 35	 3	 1.05	 0.945;
	 127	 1	 1.195	 5.497	 0	 0	 1	 0.9975	 0	 35	 3	 1.05	 0.945;
	 128	 1	 0	 0	 0	 0	 1	 0.9975	 0	 115	 3	 1.05	 0.945;
	 129	 1	 14.229	 3.343	 0	 0	 1	 0.9975	 0	 35	 3	 1.05	 0.945;
	 130	 1	 4.452	 2.371	 0	 0	 1	 0.9975	 0	 13	 3	 1.05	 0.945;
	 131	 1	 21.598	 2.501	 0	 0	 1	 0.9975	 0	 35	 3	 1.05	 0.945;
	 132	 1	 0	 0	 0	 0	 1	 0.9975	 0	 230	 3	 1.05	 0.945;
	 133	 1	 13.872	 5.202	 0	 0.000191505260198	 1	 0.9975	 0	 13	 3	 1.05	 0.945;
	 134	 1	 0	 0	 0	 0	 1	 0.9975	 0	 230	 3	 1.05	 0.945;
	 135	 1	 10.254	 8.767	 0	 0	 1	 0.9975	 0	 115	 3	 1.05	 0.945;
	 136	 1	 8.566	 44.757	 0	 0	 1	 0.9975	 0	 1	 3	 1.05	 0.945;
	 137	 1	 0	 0	 0	 0	 1	 0.9975	 0	 115	 3	 1.05	 0.945;
	 138	 1	 10.348	-1.676	 0	 0	 1	 0.9975	 0	 230	 3	 1.05	 0.945;
	 139	 1	 9.019	 2.875	 0	 0	 1	 0.9975	 0	 13	 3	 1.05	 0.945;
	 140	 1	 6.464	 4.799	 0	 0	 1	 0.9975	 0	 115	 3	 1.05	 0.945;
	 141	 2	 0	 0	 0	-47.352	 1	 0.9975	 0	 230	 3	 1.05	 0.945;
	 142	 1	 0	 0	 0	 0	 1	 0.9975	 0	 230	 3	 1.05	 0.945;
	 143	 1	 11.82	 1.789	 0	 0	 1	 0.9975	 0	 35	 3	 1.05	 0.945;
	 144	 1	 0	 0	 0	 0	 1	 0.9975	 0	 230	 3	 1.05	 0.945;
	 145	 1	 0	 0	 0	 0	 1	 0.9975	 0	 230	 3	 1.05	 0.945;
	 146	 2	 0	 0	 0	 0	 1	 0.9975	 0	 1	 3	 1.05	 0.945;
	 147	 1	 0	 0	 0	 0	 1	 0.9975	 0	 115	 3	 1.05	 0.945;
	 148	 1	 13.426	 3.187	 0	 0	 1	 0.9975	 0	 35	 3	 1.05	 0.945;
	 149	 1	 0	 0	 0	 0	 1	 0.9975	 0	 230	 3	 1.05	 0.945;
	 150	 1	 10.348	 2.727	 0	 0	 1	 0.9975	 0	 230	 3	 1.05	 0.945;
	 151	 1	 23.489	 3.847	 0	 0	 1	 0.9975	 0	 35	 3	 1.05	 0.945;
	 152	 1	 4.139	 0	 0	 0	 1	 0.9975	 0	 13	 3	 1.05	 0.945;
	 153	 1	 23.632	 8.632	 0	 0	 1	 0.9975	 0	 35	 3	 1.05	 0.945;
	 154	 1	 0.883	-0.234	 0	 0	 1	 0.9975	 0	 35	 3	 1.05	 0.945;
	 155	 1	 8.564	 5.532	 0	 0	 1	 0.9975	 0	 115	 3	 1.05	 0.945;
	 156	 1	 16.049	 2.753	 0	 0	 1	 0.9975	 0	 35	 3	 1.05	 0.945;
	 157	 1	 29.265	 21.994	 0	 24.849	 1	 0.9975	 0	 230	 3	 1.05	 0.945;
	 158	 1	 0	 0	 0	 0	 1	 0.9975	 0	 115	 3	 1.05	 0.945;
	 159	 1	 4.434	 0.669	 0	 0	 1	 0.9975	 0	 13	 3	 1.05	 0.945;
	 160	 1	 0	 0	 0	 0	 1	 0.9975	 0	 115	 3	 1.05	 0.945;
	 161	 1	 0	 0	 0	 0	 1	 0.9975	 0	 115	 3	 1.05	 0.945;
	 162	 1	 27.566	-0.139	 0	 0	 1	 0.9975	 0	 35	 3	 1.05	 0.945;
	 163	 1	 0	 0	 0	 0	 1	 0.9975	 0	 230	 3	 1.05	 0.945;
	 164	 1	 2.507	 3.526	 0	 0	 1	 0.9975	 0	 230	 3	 1.05	 0.945;
	 165	 1	 0	 0	 0	 0	 1	 0.9975	 0	 230	 3	 1.05	 0.945;
	 166	 1	 0	 0	 0	 0	 1	 0.9975	 0	 500	 3	 1.05	 0.945;
	 167	 1	 29.252	 2.388	 0	 0	 1	 0.9975	 0	 35	 3	 1.05	 0.945;
	 168	 1	 26.032	 2.44	 0	 0	 1	 0.9975	 0	 35	 3	 1.05	 0.945;
	 169	 1	 0	 0	 0	 0	 1	 0.9975	 0	 500	 3	 1.05	 0.945;
	 170	 1	 0	 0	 0	 0	 1	 0.9975	 0	 230	 3	 1.05	 0.945;
	 171	 1	 0	 0	 0	 0	 1	 0.9975	 0	 230	 3	 1.05	 0.945;
	 172	 1	 0	 0	 0	 0	 1	 0.9975	 0	 1	 3	 1.05	 0.945;
	 173	 1	 39.038	 6.67	 0	 0	 1	 0.9975	 0	 35	 3	 1.05	 0.945;
	 174	 1	 205.934	-14.126	 0	-15.638	 1	 0.9975	 0	 1	 3	 1.05	 0.945;
	 175	 1	 0	 0	 0	 0	 1	 0.9975	 0	 230	 3	 1.05	 0.945;
	 176	 1	 5.397	 1.207	 0	 0	 1	 0.9975	 0	 35	 3	 1.05	 0.945;
	 177	 1	 8.198	 2.84	 0	 0	 1	 0.9975	 0	 13	 3	 1.05	 0.945;
	 178	 1	 6.905	 2.232	 0	 0	 1	 0.9975	 0	 13	 3	 1.05	 0.945;
	 179	 1	 8.323	-0.287	 0	 0	 1	 0.9975	 0	 35	 3	 1.05	 0.945;
	 180	 1	 12.418	-1.207	 0	 0	 1	 0.9975	 0	 35	 3	 1.05	 0.945;
	 181	 1	 122.194	-18.91	 0	 0	 1	 0.9975	 0	 230	 3	 1.05	 0.945;
	 182	 1	 51.121	-6.332	 0	 0	 1	 0.9975	 0	 115	 3	 1.05	 0.945;
	 183	 1	 0	 0	 0	 0	 1	 0.9975	 0	 230	 3	 1.05	 0.945;
	 184	 1	 0	 0	 0	 0	 1	 0.9975	 0	 230	 3	 1.05	 0.945;
	 185	 1	 1.195	 6.921	 0	 0	 1	 0.9975	 0	 35	 3	 1.05	 0.945;
	 186	 1	 0	 0	 0	 0	 1	 0.9975	 0	 230	 3	 1.05	 0.945;
	 187	 1	 17.307	-1.025	 0	 0	 1	 0.9975	 0	 35	 3	 1.05	 0.945;
	 188	 1	 0	 0	 0	 0	 1	 0.9975	 0	 230	 3	 1.05	 0.945;
	 189	 2	 0	 0	 0	 0	 1	 0.9975	 0	 230	 3	 1.05	 0.945;
	 190	 1	 0	 0	 0	 0	 1	 0.9975	 0	 115	 3	 1.05	 0.945;
	 191	 1	 8.769	 1.407	 0	 0	 1	 0.9975	 0	 13	 3	 1.05	 0.945;
	 192	 1	 0	 0	 0	 0	 1	 0.9975	 0	 230	 3	 1.05	 0.945;
	 193	 1	 0	 0	 0	 0	 1	 0.9975	 0	 230	 3	 1.05	 0.945;
	 194	 1	 0	 0	 0	 39.9401133004	 1	 0.9975	 0	 115	 3	 1.05	 0.945;
	 195	 1	 20.92	 1.902	 0	 0	 1	 0.9975	 0	 7	 3	 1.05	 0.945;
	 196	 1	 34.792	 3.413	 0	 0	 1	 0.9975	 0	 35	 3	 1.05	 0.945;
	 197	 1	 12.837	 0.035	 0	 0	 1	 0.9975	 0	 35	 3	 1.05	 0.945;
	 198	 1	 0	 0	 0	 0	 1	 0.9975	 0	 230	 3	 1.05	 0.945;
	 199	 1	 0	 0	 0	 0	 1	 0.9975	 0	 500	 3	 1.05	 0.945;
	 200	 2	 0	 0	 0	 0	 1	 0.9975	 0	 500	 3	 1.05	 0.945;
...
];

mpc_regionR2.gen = [
%	bus         Pg          Qg          Qmax        Qmin        Vg          mBase       status      Pmax        Pmin        Pc1         Pc2         Qc1min      Qc1max      Qc2min      Qc2max      ramp_agc    ramp_10     ramp_30     ramp_q      apf         
	 14	 0	 0	 9.607	-9.607	 0.9975	 100	 0	 30.882	 2;
	 17	 21	 30.2505	 216.361	-155.86	 0.9975	 100	 1	 40	 2;
	 20	 0	 0	 139.885	-115.13	 0.9975	 100	 0	 449.647	 22.482;
	 22	 829.26	 0	 550	-550	 0.9975	 100	 1	 1600	 58.52;
	 27	 942.1765	 0	 500	-500	 0.9975	 1600	 1	 1882.353	 2;
	 37	 43.874	 0	 26.676	-26.676	 0.9975	 100	 1	 85.748	 2;
	 38	 21	 0	 36.6	-36.6	 0.9975	 100	 1	 40	 2;
	 49	 376.9155	 0	 134.667	-134.667	 0.9975	 804	 1	 689.706	 64.125;
	 50	 22.7085	 0	 13.507	-13.507	 0.9975	 100	 1	 43.417	 2;
	 65	 16.711	 0	 9.775	-9.775	 0.9975	 100	 1	 31.422	 2;
	 67	 0	 0	 286.303	-99	 0.9975	 848	 0	 920.294	 9.5;
	 70	 21	 0	 33.333	-33.333	 0.9975	 100	 1	 40	 2;
	 76	 29.479	 0	 15.047	-15.047	 0.9975	 100	 1	 56.54	 2.418;
	 76	 0	 0	 33.333	-33.333	 0.9975	 100	 0	 301.177	 15.059;
	 86	 840	 0	 550	-550	 0.9975	 100	 1	 1600	 80;
	 90	 376.9155	 0	 134.667	-134.667	 0.9975	 704	 1	 689.706	 64.125;
	 98	 0	 0	 39.583	-39.583	 0.9975	 160	 0	 127.235	 96.9;
	 98	 0	 0	 39.583	-39.583	 0.9975	 160	 0	 127.235	 96.9;
	 98	 0	 0	 39.583	-39.583	 0.9975	 160	 0	 127.235	 96.9;
	 99	 21	 0	 600	-600	 0.9975	 2000	 1	 40	 2;
	 99	 21	 0	 600	-600	 0.9975	 2000	 1	 40	 2;
	 100	 0	 0	 197.613	-137.41	 0.9975	 1055	 0	 635.206	 31.76;
	 101	 376.9155	 0	 134.667	-134.667	 0.9975	 704	 1	 689.706	 64.125;
	 110	 0	 0	 17.31	-10.61	 0.9975	 25	 0	 302.353	 15.118;
	 110	 0	 0	 17.31	-10.61	 0.9975	 25	 0	 315.294	 15.765;
	 110	 0	 0	 17.31	-10.61	 0.9975	 25	 0	 343.529	 8.24;
	 116	 0	 0	 33.333	-33.333	 0.9975	 100	 0	 338.823	 16.941;
	 123	 406.294	 0	 166.4	-166.4	 0.9975	 800	 1	 810.588	 2;
	 123	 378.9785	 0	 200.59	-200.59	 0.9975	 800	 1	 743.035	 14.922;
	 126	 0	 0	 3.883	-3.883	 0.9975	 100	 0	 12.482	 2;
	 141	 21	 0	 15.415	-15.415	 0.9975	 100	 1	 40	 2;
	 144	 0	 0	 16.909	-16.909	 0.9975	 57.87	 0	 54.353	 11.4;
	 146	 21	 0	 36.6	-36.6	 0.9975	 100	 1	 40	 2;
	 163	 0	 0	 6.149	-6.149	 0.9975	 100	 0	 19.765	 4.75;
	 184	 0	 0	 63.41	-63.41	 0.9975	 203.25	 0	 203.824	 50.54;
	 189	 153.6355	 0	 92.232	-92.232	 0.9975	 100	 1	 296.471	 10.8;
	 200	 803.7885	 0	 550	-550	 0.9975	 100	 1	 1600	 7.577;
	 205	 21	 0	 19.461	-19.461	 0.9975	 100	 1	 40	 2;
	 209	 0	 0	 105.513	-105.513	 0.9975	 515	 0	 339.162	 180.5;
	 217	 840	 0	 550	-550	 0.9975	 100	 1	 1600	 80;
	 218	 21	 0	 33.333	-33.333	 0.9975	 100	 1	 40	 2;
	 219	 376.9155	 0	 134.667	-134.667	 0.9975	 804	 1	 689.706	 64.125;
	 231	 21	 0	 217.129	-217.129	 0.9975	 1055	 1	 40	 2;
	 237	 21	 0	 27.586	-27.586	 0.9975	 100	 1	 40	 2;
	 252	 0	 0	 18.007	-18.007	 0.9975	 100	 0	 57.882	 34.2;
	 262	 806.7105	 0	 550	-550	 0.9975	 100	 1	 1600	 13.421;
	 270	 0	 0	 22.5	-22.5	 0.9975	 67.5	 0	 348.235	 17.412;
	 270	 0	 0	 22.099	-22.099	 0.9975	 67.5	 0	 71.035	 23.75;
	 274	 0	 0	 33.333	-33.333	 0.9975	 100	 0	 336.471	 16.824;
	 274	 0	 0	 33.333	-33.333	 0.9975	 100	 0	 314.118	 15.706;
	 279	 0	 0	 33.333	-33.333	 0.9975	 100	 0	 340	 17;
	 283	 828.724	 0	 550	-550	 0.9975	 100	 1	 1600	 57.448;
	 294	 430.7865	-19.119	 81.85	-120.088	 0.9975	 515	 1	 681.073	 180.5;
	 307	 840	 0	 550	-550	 0.9975	 100	 1	 1600	 80;
	 308	 824.0995	 0	 550	-550	 0.9975	 100	 1	 1600	 48.199;
	 319	 0	 0	 94.428	-94.428	 0.9975	 100	 0	 303.529	 15.176;
	 319	 31.2295	 0	 18.809	-18.809	 0.9975	 100	 1	 60.459	 2;
	 336	 21	 0	 32.143	-32.143	 0.9975	 100	 1	 40	 2;
	 337	 0	 0	 11.053	-11.053	 0.9975	 100	 0	 35.529	 15.2;
	 340	 21	 0	 9.151	-9.151	 0.9975	 100	 1	 40	 2;
	 346	 922.113	 0	 550	-550	 0.9975	 100	 1	 1764.226	 80;
	 347	 813.097	 0	 550	-550	 0.9975	 100	 1	 1600	 26.194;
	 349	 871.2515	 145.6895	 340.879	-49.5	 0.9975	 1020	 1	 1095.722	 646.781;
	 351	 0	 0	 29.207	-29.207	 0.9975	 100	 0	 93.882	 31.35;
	 357	 0	 0	 33.333	-33.333	 0.9975	 100	 0	 122.294	 74.1;
	 358	 21	 0	 31.492	-31.492	 0.9975	 100	 1	 40	 2;
	 360	 0	 0	 201.758	-201.758	 0.9975	 732	 0	 648.529	 498.75;
	 361	 815.642	 0	 550	-550	 0.9975	 100	 1	 1600	 31.284;
	 362	 0	 0	 27.285	-27.285	 0.9975	 100	 0	 87.706	 31.35;
	 364	 21	 0	 33.333	-33.333	 0.9975	 100	 1	 40	 2;
	 366	 21	 0	 9.15	-9.15	 0.9975	 100	 1	 40	 2;
	 368	 0	 0	 26.901	-26.901	 0.9975	 100	 0	 86.471	 29.45;
	 370	 0	 0	 102.48	-102.48	 0.9975	 214	 0	 329.412	 16.471;
	 370	 0	 0	 62.451	-62.451	 0.9975	 214	 0	 200.741	 80.75;
	 371	 0	 0	 71.333	-71.333	 0.9975	 214	 0	 328.235	 16.412;
	 371	 0	 0	 64.562	-64.562	 0.9975	 214	 0	 207.529	 89.3;
	 374	 654.037	 92.29	 259.75	-75.17	 0.9975	 732	 1	 834.941	 473.133;
	 379	 0	 0	 33.333	-33.333	 0.9975	 100	 0	 122.294	 57;
	 380	 0	 0	 220.937	-49.5	 0.9975	 1012	 0	 1300.045	 736.692;
	 383	 0	 0	 11.749	-11.749	 0.9975	 100	 0	 37.765	 17.1;
	 384	 0	 0	 33.333	-33.333	 0.9975	 100	 0	 324.706	 16.235;
	 384	 160.28	 0	 33.333	-33.333	 0.9975	 100	 1	 318.56	 2;
	 386	 16.1295	 0	 9.414	-9.414	 0.9975	 100	 1	 30.259	 2;
	 387	 840	 0	 550	-550	 0.9975	 100	 1	 1600	 80;
	 394	 294.456	 40.6275	 180.255	-99	 0.9975	 415	 1	 579.412	 9.5;
	 395	 0	 0	 257.481	-99	 0.9975	 828	 0	 827.647	 9.5;
	 396	 0	 0	 286.303	-99	 0.9975	 848	 0	 920.294	 9.5;
	 419	 830.1575	 0	 550	-550	 0.9975	 100	 1	 1600	 60.315;
	 420	 21	 0	 33.333	-33.333	 0.9975	 100	 1	 40	 2;
	 427	 0	 0	 21.521	-21.521	 0.9975	 67.5	 0	 69.176	 9.5;
	 435	 840	 0	 550	-550	 0.9975	 100	 1	 1600	 80;
	 450	 0	 0	 308.328	-148.5	 0.9975	 795	 0	 991.088	 49.554;
	 450	 0	 0	 228.435	-148.5	 0.9975	 589	 0	 734.28	 4.05;
	 457	 811.324	 0	 550	-550	 0.9975	 100	 1	 1600	 22.648;
	 459	 520.2355	 110.8675	 320.735	-99	 0.9975	 705.71	 1	 1030.971	 9.5;
	 462	 21	 0	 19.442	-19.442	 0.9975	 100	 1	 40	 2;
	 472	 0	 0	 33.333	-33.333	 0.9975	 100	 0	 305.882	 15.294;
	 472	 0	 0	 33.333	-33.333	 0.9975	 100	 0	 312.941	 15.647;
	 480	 823.9875	 0	 550	-550	 0.9975	 100	 1	 1600	 47.975;
	 484	 21	 0	 33.333	-33.333	 0.9975	 100	 1	 40	 2;
	 487	 21	 0	 26.801	-26.801	 0.9975	 100	 1	 40	 2;
	 490	 0	 0	 105.513	-104.77	 0.9975	 515	 0	 339.162	 180.5;
	 508	 0	 0	 269.01	-99	 0.9975	 828	 0	 864.706	 43.235;
	 512	 519.5495	 79.685	 307.87	-148.5	 0.9975	 795	 1	 989.618	 49.481;
	 512	 0	 0	 228.1	-148.5	 0.9975	 589	 0	 733.206	 4.05;
	 514	 159.2355	 0	 33.333	-33.333	 0.9975	 100	 1	 316.471	 2;
	 516	 840	 0	 550	-550	 0.9975	 100	 1	 1600	 80;
	 518	 0	 0	 33.333	-33.333	 0.9975	 100	 0	 370.588	 18.529;
	 518	 0	 0	 33.333	-33.333	 0.9975	 100	 0	 370.588	 18.529;
	 528	 0	 0	 33.333	-33.333	 0.9975	 100	 0	 342.353	 17.118;
	 528	 0	 0	 33.333	-33.333	 0.9975	 100	 0	 318.823	 15.941;
	 528	 840	 0	 550	-550	 0.9975	 100	 1	 1600	 80;
	 535	 0	 0	 33.333	-33.333	 0.9975	 100	 0	 370.588	 9.5;
	 535	 0	 0	 33.333	-33.333	 0.9975	 100	 0	 370.588	 9.5;
	 535	 0	 0	 33.333	-33.333	 0.9975	 100	 0	 370.588	 9.5;
	 546	 430.7865	-7.11	 81.85	-96.07	 0.9975	 515	 1	 681.073	 180.5;
	 555	 810.034	 0	 550	-550	 0.9975	 100	 1	 1600	 20.068;
	 565	 0	 0	 11.749	-6.188	 0.9975	 23	 0	 37.765	 17.1;
	 576	 814.643	 0	 550	-550	 0.9975	 100	 1	 1600	 29.286;
	 577	 0	 0	 28.781	-28.781	 0.9975	 100	 0	 92.513	 4.626;
	 585	 31.38	 0	 18.902	-18.902	 0.9975	 100	 1	 60.76	 2;
	 586	 0	 0	 12.84	-14.228	 0.9975	 100	 0	 45.735	 2.287;
	 587	 805.106	 0	 550	-550	 0.9975	 100	 1	 1600	 10.212;
	 593	 833.292	 0	 550	-550	 0.9975	 100	 1	 1600	 66.584;
	 596	 149.8235	 0	 33.333	-33.333	 0.9975	 100	 1	 297.647	 2;
	 602	 0	 0	 10.146	-4.09	 0.9975	 154	 0	 32.612	 2;
	 602	 171.706	 50.319	 101.748	-1.11	 0.9975	 100	 1	 327.059	 16.353;
	 607	 26.066	 2.103	 15.596	-11.39	 0.9975	 100	 1	 50.132	 2;
	 609	 0	 0	 7.261	-7.261	 0.9975	 100	 0	 23.341	 2;
	 610	 0	 0	 20.752	-20.752	 0.9975	 64	 0	 66.706	 3.335;
	 614	 831.7595	 0	 550	-550	 0.9975	 100	 1	 1600	 63.519;
];

mpc_regionR2.branch = [
%	fbus        tbus        r           x           b           rateA       rateB       rateC       ratio       angle       status      angmin      angmax      
	 1	 26	 0.0013	 0.0099	 0.02132	 260	 312	 390	 0	 0	 1	-30	 30;
	 2	 6	 0.03	 0.15	 0	 260	 312	 390	 0	 0	 1	-30	 30;
	 2	 9	 0.03	 0.15	 0	 260	 312	 390	 0	 0	 1	-30	 30;
	 2	 23	 0.03	 0.15	 0	 260	 312	 390	 0	 0	 1	-30	 30;
	 2	 24	 0.03	 0.15	 0	 260	 312	 390	 0	 0	 1	-30	 30;
	 2	 28	 0.03	 0.15	 0	 260	 312	 390	 0	 0	 1	-30	 30;
	 2	 39	 0.03	 0.15	 0	 260	 312	 390	 0	 0	 1	-30	 30;
	 3	 8	 0.03	 0.15	 0	 260	 312	 390	 0	 0	 1	-30	 30;
	 3	 13	 0.0111	 0.15	 0	 260	 312	 390	 0	 0	 1	-30	 30;
	 3	 28	 0.03	 0.15	 0	 260	 312	 390	 0	 0	 1	-30	 30;
	 4	 8	 0.03	 0.15	 0	 260	 312	 390	 0	 0	 1	-30	 30;
	 4	 41	 0.03	 0.15	 0	 260	 312	 390	 0	 0	 1	-30	 30;
	 5	 14	 0.0042	 0.0253	 0.0485	 260	 312	 390	 0	 0	 1	-30	 30;
	 6	 23	-0.0656	 0.15	 0	 260	 312	 390	 0	 0	 1	-30	 30;
	 6	 28	 0.03	 0.15	 0	 260	 312	 390	 0	 0	 1	-30	 30;
	 6	 39	 0.0162	 0.15	 0	 260	 312	 390	 0	 0	 1	-30	 30;
	 7	 9	-0.0598	 0.15	 0	 260	 312	 390	 0	 0	 1	-30	 30;
	 7	 24	-0.0578	 0.15	 0	 260	 312	 390	 0	 0	 1	-30	 30;
	 7	 29	 0.01979	 0.0496	 0	 260	 312	 390	 0	 0	 1	-30	 30;
	 8	 9	 0.03	 0.15	 0	 260	 312	 390	 0	 0	 1	-30	 30;
	 8	 13	 0.03	 0.15	 0	 260	 312	 390	 0	 0	 1	-30	 30;
	 8	 24	 0.03	 0.15	 0	 260	 312	 390	 0	 0	 1	-30	 30;
	 8	 28	 0.03	 0.15	 0	 260	 312	 390	 0	 0	 1	-30	 30;
	 8	 29	 0.03	 0.15	 0	 260	 312	 390	 0	 0	 1	-30	 30;
	 8	 41	 0.03	 0.15	 0	 260	 312	 390	 0	 0	 1	-30	 30;
	 9	 23	 0.03	 0.15	 0	 260	 312	 390	 0	 0	 1	-30	 30;
	 9	 24	 0.0009	 0.0008	 0	 260	 312	 390	 0	 0	 1	-30	 30;
	 9	 28	 0.03	 0.15	 0	 260	 312	 390	 0	 0	 1	-30	 30;
	 9	 29	 0.01526	 0.02962	 0	 260	 312	 390	 0	 0	 1	-30	 30;
	 10	 41	 0.03	 0.15	 0	 260	 312	 390	 0	 0	 1	-30	 30;
	 10	 43	 0.03	 0.15	 0	 260	 312	 390	 0	 0	 1	-30	 30;
	 11	 16	 0.0136	 0.0903	 0.1732	 260	 312	 390	 0	 0	 1	-30	 30;
	 11	 86	 0.0001	 0.01	 0	 133.13	 159.75	 199.69	 0	 0	 1	-30	 30;
	 12	 18	 0.0154	 0.0991	 0.17817	 546.73	 656.08	 820.1	 0	 0	 1	-30	 30;
	 12	 26	 0.0122	 0.0943	 0.18743	 260	 312	 390	 0	 0	 1	-30	 30;
	 12	 34	 0.0065	 0.0503	 0.10008	 260	 312	 390	 0	 0	 1	-30	 30;
	 12	 35	 0.0022	 0.0262	 0.05566	 675.98	 811.18	 1013.98	 0	 0	 1	-30	 30;
	 12	 35	 0.0027	 0.0268	 0.05696	 673.14	 807.77	 1009.71	 0	 0	 1	-30	 30;
	 13	 28	 0.03	 0.15	 0	 260	 312	 390	 0	 0	 1	-30	 30;
	 14	 308	 0.0001	 0.01	 0	 204	 224.4	 244.8	 0	 0	 1	-30	 30;
	 15	 38	 0.0123	 0.0822	 0.15137	 260	 312	 390	 0	 0	 1	-30	 30;
	 15	 45	 0.0057	 0.0382	 0.07047	 260	 312	 390	 0	 0	 1	-30	 30;
	 16	 30	 0.00605	 0.03642	 0.06956	 260	 312	 390	 0	 0	 1	-30	 30;
	 16	 45	 0.00203	 0.01191	 0.02399	 260	 312	 390	 0	 0	 1	-30	 30;
	 18	 40	 0.0106	 0.0684	 0.13505	 260	 312	 390	 0	 0	 1	-30	 30;
	 18	 42	 0.0112	 0.0727	 0.14343	 260	 312	 390	 0	 0	 1	-30	 30;
	 18	 44	 0.00197	 0.01283	 0.02477	 260	 312	 390	 0	 0	 1	-30	 30;
	 19	 31	 0.0045	 0.0221	 0.00642	 260	 312	 390	 0	 0	 1	-30	 30;
	 21	 40	 0.0034	 0.0221	 0.04362	 260	 312	 390	 0	 0	 1	-30	 30;
	 22	 43	 0.03	 0.15	 0	 260	 312	 390	 0	 0	 1	-30	 30;
	 22	 598	 0.0001	 0.01	 0	 83.7	 98.6	 125.55	 0	 0	 1	-30	 30;
	 23	 24	 0.03	 0.15	 0	 260	 312	 390	 0	 0	 1	-30	 30;
	 23	 28	 0.03	 0.15	 0	 260	 312	 390	 0	 0	 1	-30	 30;
	 23	 39	-0.0656	 0.15	 0	 260	 312	 390	 0	 0	 1	-30	 30;
	 24	 29	 0.01598	 0.03011	 0	 260	 312	 390	 0	 0	 1	-30	 30;
	 25	 27	 0.01265	 0.06079	 0.0289	 260	 312	 390	 0	 0	 1	-30	 30;
	 25	 36	 0.0239	 0.1186	 0.06562	 260	 312	 390	 0	 0	 1	-30	 30;
	 26	 38	 0.0001	 0.001	 0.00208	 260	 312	 390	 0	 0	 1	-30	 30;
	 28	 39	 0.03	 0.15	 0	 260	 312	 390	 0	 0	 1	-30	 30;
	 30	 37	 0.00421	 0.0253	 0.04874	 260	 312	 390	 0	 0	 1	-30	 30;
	 32	 33	 0.0044	 0.034	 0.06751	 260	 312	 390	 0	 0	 1	-30	 30;
	 32	 34	 0.0049	 0.0375	 0.07449	 416	 499.2	 624.01	 0	 0	 1	-30	 30;
	 33	 35	 0.0048	 0.0569	 0.12161	 260	 312	 390	 0	 0	 1	-30	 30;
	 34	 38	 0.0091	 0.0698	 0.13869	 260	 312	 390	 0	 0	 1	-30	 30;
	 37	 305	 0.0001	 0.01	 0	 161	 177.1	 193.2	 0	 0	 1	-30	 30;
	 50	 182	 0.00763	 0.03119	 0.00742	 359	 359	 359	 0	 0	 1	-30	 30;
	 50	 520	 0.0001	 0.01	 0	 128.57	 154.28	 192.85	 0	 0	 1	-30	 30;
	 51	 279	 0.00046	 0.00369	 0.01465	 782	 782	 782	 0	 0	 1	-30	 30;
	 51	 317	 0.00108	 0.00864	 0.0032	 782	 782	 782	 0	 0	 1	-30	 30;
	 52	 263	 0.0033	 0.01223	 0.00197	 141	 153	 153	 0	 0	 1	-30	 30;
	 53	 275	 0.0001	 0.001	 0	 564	 607	 607	 0	 0	 1	-30	 30;
	 57	 150	 0.00049	 0.00374	 0.01349	 1080	 1080	 1080	 0	 0	 1	-30	 30;
	 57	 302	 0.00025	 0.00188	 0.00684	 1080	 1080	 1080	 0	 0	 1	-30	 30;
	 58	 112	 0.00159	 0.01593	 0.00238	 264	 264	 264	 0	 0	 1	-30	 30;
	 58	 462	 0.0001	 0.01	 0	 167.93	 201.52	 251.9	 0	 0	 1	-30	 30;
	 59	 99	 0.00021	 0.00474	 0.45346	 3603	 3603	 3603	 0	 0	 1	-30	 30;
	 59	 169	 0.00051	 0.01136	 1.0862	 2666	 2702	 2702	 0	 0	 1	-30	 30;
	 62	 200	 0.00045	 0.0093	 0.702	 3164	 3164	 3164	 0	 0	 1	-30	 30;
	 62	 217	 0.0002	 0.0042	 0.31241	 2702	 2702	 2702	 0	 0	 1	-30	 30;
	 63	 142	 0.00084	 0.00773	 0.02751	 663	 663	 663	 0	 0	 1	-30	 30;
	 63	 260	 0.0001	 0.001	 0	 260	 312	 390	 0	 0	 1	-30	 30;
...